MODEL 1
REMARK VINA RESULT:      -6.3      0.000      0.000
REMARK  11 active torsions:
REMARK  status: ('A' for Active; 'I' for Inactive)
REMARK    1  A    between atoms: O_2  and  C_11 
REMARK    2  A    between atoms: O_2  and  C_23 
REMARK    3  A    between atoms: O_3  and  C_17 
REMARK    4  A    between atoms: O_4  and  C_22 
REMARK    5  A    between atoms: O_5  and  C_24 
REMARK    6  A    between atoms: O_7  and  C_26 
REMARK    7  A    between atoms: O_8  and  C_30 
REMARK    8  A    between atoms: O_9  and  C_31 
REMARK    9  A    between atoms: O_10  and  C_32 
REMARK   10  A    between atoms: C_12  and  C_16 
REMARK   11  A    between atoms: C_23  and  C_27 
ROOT
HETATM    1  O   UNK N   1      81.772  22.684   4.131  0.00  0.00    -0.338 OA
HETATM    2  C   UNK N   1      83.404  24.209   3.281  0.00  0.00     0.170 C 
HETATM    3  C   UNK N   1      82.831  23.494   4.514  0.00  0.00     0.192 C 
HETATM    4  C   UNK N   1      83.903  23.137   2.285  0.00  0.00     0.080 C 
HETATM    5  C   UNK N   1      82.868  22.045   2.088  0.00  0.00     0.011 A 
HETATM    6  C   UNK N   1      81.833  21.882   3.038  0.00  0.00     0.081 A 
HETATM    7  C   UNK N   1      82.936  21.177   0.983  0.00  0.00     0.077 A 
HETATM    8  C   UNK N   1      80.870  20.884   2.864  0.00  0.00     0.074 A 
HETATM    9  C   UNK N   1      81.968  20.171   0.825  0.00  0.00     0.073 A 
HETATM   10  C   UNK N   1      80.939  20.025   1.760  0.00  0.00     0.071 A 
ENDROOT
BRANCH   2  11
HETATM   11  O   UNK N   1      82.391  24.929   2.682  0.00  0.00    -0.309 OA
BRANCH  11  12
HETATM   12  C   UNK N   1      82.385  26.277   2.529  0.00  0.00     0.294 C 
HETATM   13  O   UNK N   1      83.322  26.846   1.988  0.00  0.00    -0.259 OA
BRANCH  12  14
HETATM   14  C   UNK N   1      81.227  27.040   3.032  0.00  0.00     0.045 A 
HETATM   15  C   UNK N   1      79.993  27.018   2.362  0.00  0.00     0.057 A 
HETATM   16  C   UNK N   1      78.909  27.763   2.855  0.00  0.00     0.102 A 
HETATM   17  C   UNK N   1      79.054  28.514   4.039  0.00  0.00     0.132 A 
HETATM   18  C   UNK N   1      80.279  28.516   4.718  0.00  0.00     0.102 A 
HETATM   19  C   UNK N   1      81.360  27.790   4.208  0.00  0.00     0.057 A 
BRANCH  16  20
HETATM   20  O   UNK N   1      77.731  27.763   2.196  0.00  0.00    -0.358 OA
HETATM   21  H   UNK N   1      77.578  28.326   1.425  0.00  0.00     0.218 HD
ENDBRANCH  16  20
BRANCH  17  22
HETATM   22  O   UNK N   1      78.026  29.237   4.533  0.00  0.00    -0.356 OA
HETATM   23  H   UNK N   1      77.885  29.355   5.483  0.00  0.00     0.218 HD
ENDBRANCH  17  22
BRANCH  18  24
HETATM   24  O   UNK N   1      80.413  29.217   5.864  0.00  0.00    -0.358 OA
HETATM   25  H   UNK N   1      81.092  29.899   5.965  0.00  0.00     0.218 HD
ENDBRANCH  18  24
ENDBRANCH  12  14
ENDBRANCH  11  12
ENDBRANCH   2  11
BRANCH   3  26
HETATM   26  C   UNK N   1      82.396  24.467   5.590  0.00  0.00    -0.024 A 
HETATM   27  C   UNK N   1      81.034  24.714   5.849  0.00  0.00     0.049 A 
HETATM   28  C   UNK N   1      80.655  25.611   6.863  0.00  0.00     0.099 A 
HETATM   29  C   UNK N   1      81.639  26.270   7.616  0.00  0.00     0.098 A 
HETATM   30  C   UNK N   1      82.995  26.030   7.352  0.00  0.00     0.040 A 
HETATM   31  C   UNK N   1      83.370  25.135   6.350  0.00  0.00     0.013 A 
BRANCH  28  32
HETATM   32  O   UNK N   1      79.352  25.843   7.123  0.00  0.00    -0.358 OA
HETATM   33  H   UNK N   1      79.041  26.698   7.458  0.00  0.00     0.218 HD
ENDBRANCH  28  32
BRANCH  29  34
HETATM   34  O   UNK N   1      81.274  27.131   8.588  0.00  0.00    -0.358 OA
HETATM   35  H   UNK N   1      81.678  27.106   9.468  0.00  0.00     0.218 HD
ENDBRANCH  29  34
ENDBRANCH   3  26
BRANCH   7  36
HETATM   36  O   UNK N   1      83.924  21.318   0.074  0.00  0.00    -0.360 OA
HETATM   37  H   UNK N   1      84.854  21.181   0.306  0.00  0.00     0.217 HD
ENDBRANCH   7  36
BRANCH  10  38
HETATM   38  O   UNK N   1      80.024  19.047   1.594  0.00  0.00    -0.361 OA
HETATM   39  H   UNK N   1      79.096  19.171   1.843  0.00  0.00     0.217 HD
ENDBRANCH  10  38
TORSDOF 11
ENDMDL
MODEL 2
REMARK VINA RESULT:      -6.2      0.826      1.601
REMARK  11 active torsions:
REMARK  status: ('A' for Active; 'I' for Inactive)
REMARK    1  A    between atoms: O_2  and  C_11 
REMARK    2  A    between atoms: O_2  and  C_23 
REMARK    3  A    between atoms: O_3  and  C_17 
REMARK    4  A    between atoms: O_4  and  C_22 
REMARK    5  A    between atoms: O_5  and  C_24 
REMARK    6  A    between atoms: O_7  and  C_26 
REMARK    7  A    between atoms: O_8  and  C_30 
REMARK    8  A    between atoms: O_9  and  C_31 
REMARK    9  A    between atoms: O_10  and  C_32 
REMARK   10  A    between atoms: C_12  and  C_16 
REMARK   11  A    between atoms: C_23  and  C_27 
ROOT
HETATM    1  O   UNK N   1      81.712  23.094   4.354  0.00  0.00    -0.338 OA
HETATM    2  C   UNK N   1      83.430  24.383   3.305  0.00  0.00     0.170 C 
HETATM    3  C   UNK N   1      82.768  23.952   4.623  0.00  0.00     0.192 C 
HETATM    4  C   UNK N   1      83.958  23.117   2.589  0.00  0.00     0.080 C 
HETATM    5  C   UNK N   1      82.907  22.022   2.563  0.00  0.00     0.011 A 
HETATM    6  C   UNK N   1      81.815  22.078   3.460  0.00  0.00     0.081 A 
HETATM    7  C   UNK N   1      83.016  20.939   1.672  0.00  0.00     0.077 A 
HETATM    8  C   UNK N   1      80.838  21.079   3.441  0.00  0.00     0.074 A 
HETATM    9  C   UNK N   1      82.033  19.936   1.669  0.00  0.00     0.073 A 
HETATM   10  C   UNK N   1      80.947  20.005   2.548  0.00  0.00     0.071 A 
ENDROOT
BRANCH   2  11
HETATM   11  O   UNK N   1      82.472  24.972   2.506  0.00  0.00    -0.309 OA
BRANCH  11  12
HETATM   12  C   UNK N   1      82.469  26.279   2.138  0.00  0.00     0.294 C 
HETATM   13  O   UNK N   1      83.341  26.721   1.404  0.00  0.00    -0.259 OA
BRANCH  12  14
HETATM   14  C   UNK N   1      81.394  27.153   2.646  0.00  0.00     0.045 A 
HETATM   15  C   UNK N   1      81.685  28.338   3.340  0.00  0.00     0.057 A 
HETATM   16  C   UNK N   1      80.643  29.146   3.823  0.00  0.00     0.102 A 
HETATM   17  C   UNK N   1      79.303  28.778   3.590  0.00  0.00     0.132 A 
HETATM   18  C   UNK N   1      79.015  27.607   2.877  0.00  0.00     0.102 A 
HETATM   19  C   UNK N   1      80.058  26.796   2.418  0.00  0.00     0.057 A 
BRANCH  16  20
HETATM   20  O   UNK N   1      80.923  30.271   4.514  0.00  0.00    -0.358 OA
HETATM   21  H   UNK N   1      81.831  30.576   4.644  0.00  0.00     0.218 HD
ENDBRANCH  16  20
BRANCH  17  22
HETATM   22  O   UNK N   1      78.284  29.539   4.044  0.00  0.00    -0.356 OA
HETATM   23  H   UNK N   1      78.244  30.494   3.893  0.00  0.00     0.218 HD
ENDBRANCH  17  22
BRANCH  18  24
HETATM   24  O   UNK N   1      77.733  27.265   2.632  0.00  0.00    -0.358 OA
HETATM   25  H   UNK N   1      77.255  26.647   3.204  0.00  0.00     0.218 HD
ENDBRANCH  18  24
ENDBRANCH  12  14
ENDBRANCH  11  12
ENDBRANCH   2  11
BRANCH   3  26
HETATM   26  C   UNK N   1      82.298  25.137   5.441  0.00  0.00    -0.024 A 
HETATM   27  C   UNK N   1      80.940  25.305   5.774  0.00  0.00     0.049 A 
HETATM   28  C   UNK N   1      80.530  26.406   6.548  0.00  0.00     0.099 A 
HETATM   29  C   UNK N   1      81.477  27.345   6.982  0.00  0.00     0.098 A 
HETATM   30  C   UNK N   1      82.827  27.181   6.643  0.00  0.00     0.040 A 
HETATM   31  C   UNK N   1      83.234  26.085   5.881  0.00  0.00     0.013 A 
BRANCH  28  32
HETATM   32  O   UNK N   1      79.232  26.566   6.880  0.00  0.00    -0.358 OA
HETATM   33  H   UNK N   1      78.875  27.426   7.149  0.00  0.00     0.218 HD
ENDBRANCH  28  32
BRANCH  29  34
HETATM   34  O   UNK N   1      81.082  28.401   7.723  0.00  0.00    -0.358 OA
HETATM   35  H   UNK N   1      81.695  29.112   7.963  0.00  0.00     0.218 HD
ENDBRANCH  29  34
ENDBRANCH   3  26
BRANCH   7  36
HETATM   36  O   UNK N   1      84.058  20.871   0.816  0.00  0.00    -0.360 OA
HETATM   37  H   UNK N   1      84.301  20.045   0.374  0.00  0.00     0.217 HD
ENDBRANCH   7  36
BRANCH  10  38
HETATM   38  O   UNK N   1      80.018  19.026   2.536  0.00  0.00    -0.361 OA
HETATM   39  H   UNK N   1      80.200  18.157   2.151  0.00  0.00     0.217 HD
ENDBRANCH  10  38
TORSDOF 11
ENDMDL
MODEL 3
REMARK VINA RESULT:      -6.1      1.506      1.894
REMARK  11 active torsions:
REMARK  status: ('A' for Active; 'I' for Inactive)
REMARK    1  A    between atoms: O_2  and  C_11 
REMARK    2  A    between atoms: O_2  and  C_23 
REMARK    3  A    between atoms: O_3  and  C_17 
REMARK    4  A    between atoms: O_4  and  C_22 
REMARK    5  A    between atoms: O_5  and  C_24 
REMARK    6  A    between atoms: O_7  and  C_26 
REMARK    7  A    between atoms: O_8  and  C_30 
REMARK    8  A    between atoms: O_9  and  C_31 
REMARK    9  A    between atoms: O_10  and  C_32 
REMARK   10  A    between atoms: C_12  and  C_16 
REMARK   11  A    between atoms: C_23  and  C_27 
ROOT
HETATM    1  O   UNK N   1      81.612  23.458   3.978  0.00  0.00    -0.338 OA
HETATM    2  C   UNK N   1      83.259  25.073   3.350  0.00  0.00     0.170 C 
HETATM    3  C   UNK N   1      82.755  24.103   4.429  0.00  0.00     0.192 C 
HETATM    4  C   UNK N   1      83.590  24.257   2.079  0.00  0.00     0.080 C 
HETATM    5  C   UNK N   1      82.469  23.293   1.737  0.00  0.00     0.011 A 
HETATM    6  C   UNK N   1      81.517  22.947   2.724  0.00  0.00     0.081 A 
HETATM    7  C   UNK N   1      82.376  22.720   0.455  0.00  0.00     0.077 A 
HETATM    8  C   UNK N   1      80.477  22.066   2.419  0.00  0.00     0.074 A 
HETATM    9  C   UNK N   1      81.332  21.827   0.164  0.00  0.00     0.073 A 
HETATM   10  C   UNK N   1      80.385  21.501   1.141  0.00  0.00     0.071 A 
ENDROOT
BRANCH   2  11
HETATM   11  O   UNK N   1      82.246  25.961   3.052  0.00  0.00    -0.309 OA
BRANCH  11  12
HETATM   12  C   UNK N   1      82.337  27.309   3.176  0.00  0.00     0.294 C 
HETATM   13  O   UNK N   1      83.428  27.854   3.267  0.00  0.00    -0.259 OA
BRANCH  12  14
HETATM   14  C   UNK N   1      81.093  28.101   3.204  0.00  0.00     0.045 A 
HETATM   15  C   UNK N   1      79.842  27.487   3.377  0.00  0.00     0.057 A 
HETATM   16  C   UNK N   1      78.671  28.263   3.387  0.00  0.00     0.102 A 
HETATM   17  C   UNK N   1      78.754  29.663   3.249  0.00  0.00     0.132 A 
HETATM   18  C   UNK N   1      80.006  30.275   3.100  0.00  0.00     0.102 A 
HETATM   19  C   UNK N   1      81.165  29.494   3.068  0.00  0.00     0.057 A 
BRANCH  16  20
HETATM   20  O   UNK N   1      77.467  27.669   3.527  0.00  0.00    -0.358 OA
HETATM   21  H   UNK N   1      77.358  26.712   3.446  0.00  0.00     0.218 HD
ENDBRANCH  16  20
BRANCH  17  22
HETATM   22  O   UNK N   1      77.643  30.429   3.257  0.00  0.00    -0.356 OA
HETATM   23  H   UNK N   1      76.896  30.251   3.845  0.00  0.00     0.218 HD
ENDBRANCH  17  22
BRANCH  18  24
HETATM   24  O   UNK N   1      80.089  31.618   2.990  0.00  0.00    -0.358 OA
HETATM   25  H   UNK N   1      79.638  32.206   3.613  0.00  0.00     0.218 HD
ENDBRANCH  18  24
ENDBRANCH  12  14
ENDBRANCH  11  12
ENDBRANCH   2  11
BRANCH   3  26
HETATM   26  C   UNK N   1      82.488  24.800   5.747  0.00  0.00    -0.024 A 
HETATM   27  C   UNK N   1      83.460  25.621   6.352  0.00  0.00     0.049 A 
HETATM   28  C   UNK N   1      83.184  26.270   7.568  0.00  0.00     0.099 A 
HETATM   29  C   UNK N   1      81.937  26.094   8.186  0.00  0.00     0.098 A 
HETATM   30  C   UNK N   1      80.973  25.271   7.587  0.00  0.00     0.040 A 
HETATM   31  C   UNK N   1      81.245  24.632   6.377  0.00  0.00     0.013 A 
BRANCH  28  32
HETATM   32  O   UNK N   1      84.107  27.066   8.147  0.00  0.00    -0.358 OA
HETATM   33  H   UNK N   1      83.937  28.003   8.322  0.00  0.00     0.218 HD
ENDBRANCH  28  32
BRANCH  29  34
HETATM   34  O   UNK N   1      81.673  26.717   9.354  0.00  0.00    -0.358 OA
HETATM   35  H   UNK N   1      82.376  27.112   9.890  0.00  0.00     0.218 HD
ENDBRANCH  29  34
ENDBRANCH   3  26
BRANCH   7  36
HETATM   36  O   UNK N   1      83.283  23.036  -0.493  0.00  0.00    -0.360 OA
HETATM   37  H   UNK N   1      83.024  23.207  -1.410  0.00  0.00     0.217 HD
ENDBRANCH   7  36
BRANCH  10  38
HETATM   38  O   UNK N   1      79.394  20.635   0.843  0.00  0.00    -0.361 OA
HETATM   39  H   UNK N   1      79.260  19.822   1.352  0.00  0.00     0.217 HD
ENDBRANCH  10  38
TORSDOF 11
ENDMDL
MODEL 4
REMARK VINA RESULT:      -6.0      2.466      6.566
REMARK  11 active torsions:
REMARK  status: ('A' for Active; 'I' for Inactive)
REMARK    1  A    between atoms: O_2  and  C_11 
REMARK    2  A    between atoms: O_2  and  C_23 
REMARK    3  A    between atoms: O_3  and  C_17 
REMARK    4  A    between atoms: O_4  and  C_22 
REMARK    5  A    between atoms: O_5  and  C_24 
REMARK    6  A    between atoms: O_7  and  C_26 
REMARK    7  A    between atoms: O_8  and  C_30 
REMARK    8  A    between atoms: O_9  and  C_31 
REMARK    9  A    between atoms: O_10  and  C_32 
REMARK   10  A    between atoms: C_12  and  C_16 
REMARK   11  A    between atoms: C_23  and  C_27 
ROOT
HETATM    1  O   UNK N   1      84.318  25.810   6.935  0.00  0.00    -0.338 OA
HETATM    2  C   UNK N   1      82.275  26.871   6.291  0.00  0.00     0.170 C 
HETATM    3  C   UNK N   1      82.980  25.559   6.669  0.00  0.00     0.192 C 
HETATM    4  C   UNK N   1      82.394  27.848   7.484  0.00  0.00     0.080 C 
HETATM    5  C   UNK N   1      83.816  27.901   8.012  0.00  0.00     0.011 A 
HETATM    6  C   UNK N   1      84.720  26.861   7.693  0.00  0.00     0.081 A 
HETATM    7  C   UNK N   1      84.241  28.961   8.832  0.00  0.00     0.077 A 
HETATM    8  C   UNK N   1      86.033  26.903   8.168  0.00  0.00     0.074 A 
HETATM    9  C   UNK N   1      85.561  28.986   9.312  0.00  0.00     0.073 A 
HETATM   10  C   UNK N   1      86.455  27.963   8.981  0.00  0.00     0.071 A 
ENDROOT
BRANCH   2  11
HETATM   11  O   UNK N   1      82.925  27.420   5.206  0.00  0.00    -0.309 OA
BRANCH  11  12
HETATM   12  C   UNK N   1      82.500  28.511   4.519  0.00  0.00     0.294 C 
HETATM   13  O   UNK N   1      83.220  29.492   4.401  0.00  0.00    -0.259 OA
BRANCH  12  14
HETATM   14  C   UNK N   1      81.151  28.488   3.923  0.00  0.00     0.045 A 
HETATM   15  C   UNK N   1      80.270  29.572   4.070  0.00  0.00     0.057 A 
HETATM   16  C   UNK N   1      78.987  29.520   3.503  0.00  0.00     0.102 A 
HETATM   17  C   UNK N   1      78.591  28.387   2.764  0.00  0.00     0.132 A 
HETATM   18  C   UNK N   1      79.480  27.316   2.599  0.00  0.00     0.102 A 
HETATM   19  C   UNK N   1      80.748  27.366   3.186  0.00  0.00     0.057 A 
BRANCH  16  20
HETATM   20  O   UNK N   1      78.131  30.551   3.667  0.00  0.00    -0.358 OA
HETATM   21  H   UNK N   1      78.378  31.458   3.442  0.00  0.00     0.218 HD
ENDBRANCH  16  20
BRANCH  17  22
HETATM   22  O   UNK N   1      77.362  28.314   2.208  0.00  0.00    -0.356 OA
HETATM   23  H   UNK N   1      76.560  28.553   2.693  0.00  0.00     0.218 HD
ENDBRANCH  17  22
BRANCH  18  24
HETATM   24  O   UNK N   1      79.110  26.241   1.873  0.00  0.00    -0.358 OA
HETATM   25  H   UNK N   1      79.423  26.109   0.966  0.00  0.00     0.218 HD
ENDBRANCH  18  24
ENDBRANCH  12  14
ENDBRANCH  11  12
ENDBRANCH   2  11
BRANCH   3  26
HETATM   26  C   UNK N   1      82.839  24.503   5.593  0.00  0.00    -0.024 A 
HETATM   27  C   UNK N   1      81.779  24.537   4.666  0.00  0.00     0.049 A 
HETATM   28  C   UNK N   1      81.678  23.553   3.666  0.00  0.00     0.099 A 
HETATM   29  C   UNK N   1      82.633  22.528   3.597  0.00  0.00     0.098 A 
HETATM   30  C   UNK N   1      83.683  22.490   4.525  0.00  0.00     0.040 A 
HETATM   31  C   UNK N   1      83.786  23.470   5.513  0.00  0.00     0.013 A 
BRANCH  28  32
HETATM   32  O   UNK N   1      80.672  23.588   2.768  0.00  0.00    -0.358 OA
HETATM   33  H   UNK N   1      79.881  24.131   2.906  0.00  0.00     0.218 HD
ENDBRANCH  28  32
BRANCH  29  34
HETATM   34  O   UNK N   1      82.534  21.584   2.637  0.00  0.00    -0.358 OA
HETATM   35  H   UNK N   1      83.191  20.878   2.549  0.00  0.00     0.218 HD
ENDBRANCH  29  34
ENDBRANCH   3  26
BRANCH   7  36
HETATM   36  O   UNK N   1      83.385  29.955   9.150  0.00  0.00    -0.360 OA
HETATM   37  H   UNK N   1      83.147  30.151  10.067  0.00  0.00     0.217 HD
ENDBRANCH   7  36
BRANCH  10  38
HETATM   38  O   UNK N   1      87.716  28.001   9.459  0.00  0.00    -0.361 OA
HETATM   39  H   UNK N   1      88.198  27.193   9.687  0.00  0.00     0.217 HD
ENDBRANCH  10  38
TORSDOF 11
ENDMDL
MODEL 5
REMARK VINA RESULT:      -5.9      1.917      6.548
REMARK  11 active torsions:
REMARK  status: ('A' for Active; 'I' for Inactive)
REMARK    1  A    between atoms: O_2  and  C_11 
REMARK    2  A    between atoms: O_2  and  C_23 
REMARK    3  A    between atoms: O_3  and  C_17 
REMARK    4  A    between atoms: O_4  and  C_22 
REMARK    5  A    between atoms: O_5  and  C_24 
REMARK    6  A    between atoms: O_7  and  C_26 
REMARK    7  A    between atoms: O_8  and  C_30 
REMARK    8  A    between atoms: O_9  and  C_31 
REMARK    9  A    between atoms: O_10  and  C_32 
REMARK   10  A    between atoms: C_12  and  C_16 
REMARK   11  A    between atoms: C_23  and  C_27 
ROOT
HETATM    1  O   UNK N   1      80.884  26.087   2.922  0.00  0.00    -0.338 OA
HETATM    2  C   UNK N   1      83.154  25.908   3.649  0.00  0.00     0.170 C 
HETATM    3  C   UNK N   1      82.105  25.516   2.596  0.00  0.00     0.192 C 
HETATM    4  C   UNK N   1      83.286  27.449   3.653  0.00  0.00     0.080 C 
HETATM    5  C   UNK N   1      81.923  28.117   3.686  0.00  0.00     0.011 A 
HETATM    6  C   UNK N   1      80.773  27.380   3.320  0.00  0.00     0.081 A 
HETATM    7  C   UNK N   1      81.791  29.468   4.056  0.00  0.00     0.077 A 
HETATM    8  C   UNK N   1      79.513  27.982   3.353  0.00  0.00     0.074 A 
HETATM    9  C   UNK N   1      80.519  30.065   4.075  0.00  0.00     0.073 A 
HETATM   10  C   UNK N   1      79.384  29.326   3.726  0.00  0.00     0.071 A 
ENDROOT
BRANCH   2  11
HETATM   11  O   UNK N   1      82.705  25.501   4.888  0.00  0.00    -0.309 OA
BRANCH  11  12
HETATM   12  C   UNK N   1      83.465  25.460   6.011  0.00  0.00     0.294 C 
HETATM   13  O   UNK N   1      84.375  24.651   6.117  0.00  0.00    -0.259 OA
BRANCH  12  14
HETATM   14  C   UNK N   1      83.166  26.408   7.101  0.00  0.00     0.045 A 
HETATM   15  C   UNK N   1      82.463  26.003   8.247  0.00  0.00     0.057 A 
HETATM   16  C   UNK N   1      82.181  26.929   9.265  0.00  0.00     0.102 A 
HETATM   17  C   UNK N   1      82.626  28.261   9.146  0.00  0.00     0.132 A 
HETATM   18  C   UNK N   1      83.347  28.657   8.012  0.00  0.00     0.102 A 
HETATM   19  C   UNK N   1      83.605  27.735   6.993  0.00  0.00     0.057 A 
BRANCH  16  20
HETATM   20  O   UNK N   1      81.481  26.546  10.354  0.00  0.00    -0.358 OA
HETATM   21  H   UNK N   1      81.266  27.164  11.065  0.00  0.00     0.218 HD
ENDBRANCH  16  20
BRANCH  17  22
HETATM   22  O   UNK N   1      82.367  29.169  10.112  0.00  0.00    -0.356 OA
HETATM   23  H   UNK N   1      82.003  28.919  10.972  0.00  0.00     0.218 HD
ENDBRANCH  17  22
BRANCH  18  24
HETATM   24  O   UNK N   1      83.794  29.926   7.908  0.00  0.00    -0.358 OA
HETATM   25  H   UNK N   1      83.756  30.540   8.655  0.00  0.00     0.218 HD
ENDBRANCH  18  24
ENDBRANCH  12  14
ENDBRANCH  11  12
ENDBRANCH   2  11
BRANCH   3  26
HETATM   26  C   UNK N   1      81.971  24.014   2.455  0.00  0.00    -0.024 A 
HETATM   27  C   UNK N   1      80.708  23.394   2.383  0.00  0.00     0.049 A 
HETATM   28  C   UNK N   1      80.610  21.999   2.237  0.00  0.00     0.099 A 
HETATM   29  C   UNK N   1      81.774  21.220   2.170  0.00  0.00     0.098 A 
HETATM   30  C   UNK N   1      83.031  21.837   2.250  0.00  0.00     0.040 A 
HETATM   31  C   UNK N   1      83.128  23.222   2.389  0.00  0.00     0.013 A 
BRANCH  28  32
HETATM   32  O   UNK N   1      79.403  21.400   2.156  0.00  0.00    -0.358 OA
HETATM   33  H   UNK N   1      78.725  21.521   2.837  0.00  0.00     0.218 HD
ENDBRANCH  28  32
BRANCH  29  34
HETATM   34  O   UNK N   1      81.679  19.881   2.031  0.00  0.00    -0.358 OA
HETATM   35  H   UNK N   1      81.412  19.475   1.193  0.00  0.00     0.218 HD
ENDBRANCH  29  34
ENDBRANCH   3  26
BRANCH   7  36
HETATM   36  O   UNK N   1      82.882  30.184   4.400  0.00  0.00    -0.360 OA
HETATM   37  H   UNK N   1      82.905  31.148   4.323  0.00  0.00     0.217 HD
ENDBRANCH   7  36
BRANCH  10  38
HETATM   38  O   UNK N   1      78.173  29.921   3.743  0.00  0.00    -0.361 OA
HETATM   39  H   UNK N   1      77.355  29.406   3.809  0.00  0.00     0.217 HD
ENDBRANCH  10  38
TORSDOF 11
ENDMDL
MODEL 6
REMARK VINA RESULT:      -5.7      3.100      8.292
REMARK  11 active torsions:
REMARK  status: ('A' for Active; 'I' for Inactive)
REMARK    1  A    between atoms: O_2  and  C_11 
REMARK    2  A    between atoms: O_2  and  C_23 
REMARK    3  A    between atoms: O_3  and  C_17 
REMARK    4  A    between atoms: O_4  and  C_22 
REMARK    5  A    between atoms: O_5  and  C_24 
REMARK    6  A    between atoms: O_7  and  C_26 
REMARK    7  A    between atoms: O_8  and  C_30 
REMARK    8  A    between atoms: O_9  and  C_31 
REMARK    9  A    between atoms: O_10  and  C_32 
REMARK   10  A    between atoms: C_12  and  C_16 
REMARK   11  A    between atoms: C_23  and  C_27 
ROOT
HETATM    1  O   UNK N   1      81.772  23.864   5.180  0.00  0.00    -0.338 OA
HETATM    2  C   UNK N   1      83.911  23.284   4.285  0.00  0.00     0.170 C 
HETATM    3  C   UNK N   1      82.421  23.530   4.001  0.00  0.00     0.192 C 
HETATM    4  C   UNK N   1      84.518  24.584   4.862  0.00  0.00     0.080 C 
HETATM    5  C   UNK N   1      83.643  25.159   5.961  0.00  0.00     0.011 A 
HETATM    6  C   UNK N   1      82.293  24.750   6.067  0.00  0.00     0.081 A 
HETATM    7  C   UNK N   1      84.151  26.109   6.865  0.00  0.00     0.077 A 
HETATM    8  C   UNK N   1      81.480  25.268   7.078  0.00  0.00     0.074 A 
HETATM    9  C   UNK N   1      83.321  26.629   7.871  0.00  0.00     0.073 A 
HETATM   10  C   UNK N   1      81.991  26.210   7.980  0.00  0.00     0.071 A 
ENDROOT
BRANCH   2  11
HETATM   11  O   UNK N   1      84.017  22.290   5.235  0.00  0.00    -0.309 OA
BRANCH  11  12
HETATM   12  C   UNK N   1      84.949  21.303   5.223  0.00  0.00     0.294 C 
HETATM   13  O   UNK N   1      86.140  21.573   5.193  0.00  0.00    -0.259 OA
BRANCH  12  14
HETATM   14  C   UNK N   1      84.492  19.900   5.243  0.00  0.00     0.045 A 
HETATM   15  C   UNK N   1      84.854  19.030   6.283  0.00  0.00     0.057 A 
HETATM   16  C   UNK N   1      84.415  17.696   6.272  0.00  0.00     0.102 A 
HETATM   17  C   UNK N   1      83.590  17.237   5.226  0.00  0.00     0.132 A 
HETATM   18  C   UNK N   1      83.211  18.113   4.201  0.00  0.00     0.102 A 
HETATM   19  C   UNK N   1      83.670  19.434   4.207  0.00  0.00     0.057 A 
BRANCH  16  20
HETATM   20  O   UNK N   1      84.786  16.853   7.259  0.00  0.00    -0.358 OA
HETATM   21  H   UNK N   1      85.021  17.172   8.141  0.00  0.00     0.218 HD
ENDBRANCH  16  20
BRANCH  17  22
HETATM   22  O   UNK N   1      83.155  15.959   5.194  0.00  0.00    -0.356 OA
HETATM   23  H   UNK N   1      82.777  15.521   5.970  0.00  0.00     0.218 HD
ENDBRANCH  17  22
BRANCH  18  24
HETATM   24  O   UNK N   1      82.402  17.681   3.211  0.00  0.00    -0.358 OA
HETATM   25  H   UNK N   1      82.592  16.871   2.717  0.00  0.00     0.218 HD
ENDBRANCH  18  24
ENDBRANCH  12  14
ENDBRANCH  11  12
ENDBRANCH   2  11
BRANCH   3  26
HETATM   26  C   UNK N   1      81.758  22.335   3.347  0.00  0.00    -0.024 A 
HETATM   27  C   UNK N   1      80.794  21.567   4.029  0.00  0.00     0.049 A 
HETATM   28  C   UNK N   1      80.181  20.472   3.396  0.00  0.00     0.099 A 
HETATM   29  C   UNK N   1      80.538  20.136   2.081  0.00  0.00     0.098 A 
HETATM   30  C   UNK N   1      81.504  20.896   1.406  0.00  0.00     0.040 A 
HETATM   31  C   UNK N   1      82.106  21.987   2.033  0.00  0.00     0.013 A 
BRANCH  28  32
HETATM   32  O   UNK N   1      79.249  19.739   4.040  0.00  0.00    -0.358 OA
HETATM   33  H   UNK N   1      79.384  19.420   4.944  0.00  0.00     0.218 HD
ENDBRANCH  28  32
BRANCH  29  34
HETATM   34  O   UNK N   1      79.950  19.084   1.474  0.00  0.00    -0.358 OA
HETATM   35  H   UNK N   1      78.988  18.977   1.461  0.00  0.00     0.218 HD
ENDBRANCH  29  34
ENDBRANCH   3  26
BRANCH   7  36
HETATM   36  O   UNK N   1      85.436  26.512   6.769  0.00  0.00    -0.360 OA
HETATM   37  H   UNK N   1      86.056  26.100   6.150  0.00  0.00     0.217 HD
ENDBRANCH   7  36
BRANCH  10  38
HETATM   38  O   UNK N   1      81.208  26.728   8.949  0.00  0.00    -0.361 OA
HETATM   39  H   UNK N   1      81.164  27.682   9.112  0.00  0.00     0.217 HD
ENDBRANCH  10  38
TORSDOF 11
ENDMDL
MODEL 7
REMARK VINA RESULT:      -5.7      2.517      4.389
REMARK  11 active torsions:
REMARK  status: ('A' for Active; 'I' for Inactive)
REMARK    1  A    between atoms: O_2  and  C_11 
REMARK    2  A    between atoms: O_2  and  C_23 
REMARK    3  A    between atoms: O_3  and  C_17 
REMARK    4  A    between atoms: O_4  and  C_22 
REMARK    5  A    between atoms: O_5  and  C_24 
REMARK    6  A    between atoms: O_7  and  C_26 
REMARK    7  A    between atoms: O_8  and  C_30 
REMARK    8  A    between atoms: O_9  and  C_31 
REMARK    9  A    between atoms: O_10  and  C_32 
REMARK   10  A    between atoms: C_12  and  C_16 
REMARK   11  A    between atoms: C_23  and  C_27 
ROOT
HETATM    1  O   UNK N   1      83.804  23.755   4.354  0.00  0.00    -0.338 OA
HETATM    2  C   UNK N   1      82.523  25.606   3.550  0.00  0.00     0.170 C 
HETATM    3  C   UNK N   1      83.918  25.054   3.882  0.00  0.00     0.192 C 
HETATM    4  C   UNK N   1      81.893  24.710   2.458  0.00  0.00     0.080 C 
HETATM    5  C   UNK N   1      82.042  23.239   2.800  0.00  0.00     0.011 A 
HETATM    6  C   UNK N   1      83.003  22.836   3.757  0.00  0.00     0.081 A 
HETATM    7  C   UNK N   1      81.250  22.267   2.163  0.00  0.00     0.077 A 
HETATM    8  C   UNK N   1      83.144  21.486   4.084  0.00  0.00     0.074 A 
HETATM    9  C   UNK N   1      81.409  20.911   2.494  0.00  0.00     0.073 A 
HETATM   10  C   UNK N   1      82.350  20.520   3.451  0.00  0.00     0.071 A 
ENDROOT
BRANCH   2  11
HETATM   11  O   UNK N   1      81.741  25.532   4.684  0.00  0.00    -0.309 OA
BRANCH  11  12
HETATM   12  C   UNK N   1      81.217  26.602   5.334  0.00  0.00     0.294 C 
HETATM   13  O   UNK N   1      80.367  27.300   4.800  0.00  0.00    -0.259 OA
BRANCH  12  14
HETATM   14  C   UNK N   1      81.697  26.906   6.695  0.00  0.00     0.045 A 
HETATM   15  C   UNK N   1      81.548  25.984   7.744  0.00  0.00     0.057 A 
HETATM   16  C   UNK N   1      82.003  26.303   9.034  0.00  0.00     0.102 A 
HETATM   17  C   UNK N   1      82.632  27.541   9.270  0.00  0.00     0.132 A 
HETATM   18  C   UNK N   1      82.800  28.450   8.217  0.00  0.00     0.102 A 
HETATM   19  C   UNK N   1      82.325  28.135   6.941  0.00  0.00     0.057 A 
BRANCH  16  20
HETATM   20  O   UNK N   1      81.835  25.426  10.047  0.00  0.00    -0.358 OA
HETATM   21  H   UNK N   1      82.132  24.509   9.981  0.00  0.00     0.218 HD
ENDBRANCH  16  20
BRANCH  17  22
HETATM   22  O   UNK N   1      83.078  27.869  10.501  0.00  0.00    -0.356 OA
HETATM   23  H   UNK N   1      82.611  27.610  11.308  0.00  0.00     0.218 HD
ENDBRANCH  17  22
BRANCH  18  24
HETATM   24  O   UNK N   1      83.423  29.627   8.437  0.00  0.00    -0.358 OA
HETATM   25  H   UNK N   1      84.389  29.692   8.465  0.00  0.00     0.218 HD
ENDBRANCH  18  24
ENDBRANCH  12  14
ENDBRANCH  11  12
ENDBRANCH   2  11
BRANCH   3  26
HETATM   26  C   UNK N   1      84.653  25.922   4.883  0.00  0.00    -0.024 A 
HETATM   27  C   UNK N   1      85.012  27.249   4.578  0.00  0.00     0.049 A 
HETATM   28  C   UNK N   1      85.681  28.040   5.529  0.00  0.00     0.099 A 
HETATM   29  C   UNK N   1      85.999  27.502   6.785  0.00  0.00     0.098 A 
HETATM   30  C   UNK N   1      85.648  26.179   7.085  0.00  0.00     0.040 A 
HETATM   31  C   UNK N   1      84.979  25.396   6.143  0.00  0.00     0.013 A 
BRANCH  28  32
HETATM   32  O   UNK N   1      86.018  29.316   5.247  0.00  0.00    -0.358 OA
HETATM   33  H   UNK N   1      85.436  29.898   4.736  0.00  0.00     0.218 HD
ENDBRANCH  28  32
BRANCH  29  34
HETATM   34  O   UNK N   1      86.641  28.262   7.697  0.00  0.00    -0.358 OA
HETATM   35  H   UNK N   1      86.849  29.192   7.528  0.00  0.00     0.218 HD
ENDBRANCH  29  34
ENDBRANCH   3  26
BRANCH   7  36
HETATM   36  O   UNK N   1      80.334  22.638   1.243  0.00  0.00    -0.360 OA
HETATM   37  H   UNK N   1      80.346  23.517   0.838  0.00  0.00     0.217 HD
ENDBRANCH   7  36
BRANCH  10  38
HETATM   38  O   UNK N   1      82.493  19.212   3.749  0.00  0.00    -0.361 OA
HETATM   39  H   UNK N   1      82.934  18.598   3.144  0.00  0.00     0.217 HD
ENDBRANCH  10  38
TORSDOF 11
ENDMDL
MODEL 8
REMARK VINA RESULT:      -5.7      3.479      5.341
REMARK  11 active torsions:
REMARK  status: ('A' for Active; 'I' for Inactive)
REMARK    1  A    between atoms: O_2  and  C_11 
REMARK    2  A    between atoms: O_2  and  C_23 
REMARK    3  A    between atoms: O_3  and  C_17 
REMARK    4  A    between atoms: O_4  and  C_22 
REMARK    5  A    between atoms: O_5  and  C_24 
REMARK    6  A    between atoms: O_7  and  C_26 
REMARK    7  A    between atoms: O_8  and  C_30 
REMARK    8  A    between atoms: O_9  and  C_31 
REMARK    9  A    between atoms: O_10  and  C_32 
REMARK   10  A    between atoms: C_12  and  C_16 
REMARK   11  A    between atoms: C_23  and  C_27 
ROOT
HETATM    1  O   UNK N   1      85.877  23.413   5.556  0.00  0.00    -0.338 OA
HETATM    2  C   UNK N   1      83.759  24.158   4.736  0.00  0.00     0.170 C 
HETATM    3  C   UNK N   1      85.285  24.337   4.708  0.00  0.00     0.192 C 
HETATM    4  C   UNK N   1      83.427  22.725   4.257  0.00  0.00     0.080 C 
HETATM    5  C   UNK N   1      84.303  21.698   4.951  0.00  0.00     0.011 A 
HETATM    6  C   UNK N   1      85.499  22.109   5.583  0.00  0.00     0.081 A 
HETATM    7  C   UNK N   1      83.951  20.336   4.955  0.00  0.00     0.077 A 
HETATM    8  C   UNK N   1      86.309  21.173   6.230  0.00  0.00     0.074 A 
HETATM    9  C   UNK N   1      84.779  19.403   5.600  0.00  0.00     0.073 A 
HETATM   10  C   UNK N   1      85.953  19.818   6.237  0.00  0.00     0.071 A 
ENDROOT
BRANCH   2  11
HETATM   11  O   UNK N   1      83.326  24.297   6.038  0.00  0.00    -0.309 OA
BRANCH  11  12
HETATM   12  C   UNK N   1      82.222  24.992   6.417  0.00  0.00     0.294 C 
HETATM   13  O   UNK N   1      81.112  24.656   6.031  0.00  0.00    -0.259 OA
BRANCH  12  14
HETATM   14  C   UNK N   1      82.393  26.160   7.301  0.00  0.00     0.045 A 
HETATM   15  C   UNK N   1      82.981  27.347   6.836  0.00  0.00     0.057 A 
HETATM   16  C   UNK N   1      83.143  28.441   7.702  0.00  0.00     0.102 A 
HETATM   17  C   UNK N   1      82.691  28.355   9.034  0.00  0.00     0.132 A 
HETATM   18  C   UNK N   1      82.083  27.177   9.490  0.00  0.00     0.102 A 
HETATM   19  C   UNK N   1      81.946  26.085   8.628  0.00  0.00     0.057 A 
BRANCH  16  20
HETATM   20  O   UNK N   1      83.733  29.572   7.261  0.00  0.00    -0.358 OA
HETATM   21  H   UNK N   1      84.070  30.242   7.871  0.00  0.00     0.218 HD
ENDBRANCH  16  20
BRANCH  17  22
HETATM   22  O   UNK N   1      82.834  29.394   9.884  0.00  0.00    -0.356 OA
HETATM   23  H   UNK N   1      82.087  29.939  10.166  0.00  0.00     0.218 HD
ENDBRANCH  17  22
BRANCH  18  24
HETATM   24  O   UNK N   1      81.630  27.102  10.759  0.00  0.00    -0.358 OA
HETATM   25  H   UNK N   1      80.699  27.260  10.975  0.00  0.00     0.218 HD
ENDBRANCH  18  24
ENDBRANCH  12  14
ENDBRANCH  11  12
ENDBRANCH   2  11
BRANCH   3  26
HETATM   26  C   UNK N   1      85.703  25.745   5.078  0.00  0.00    -0.024 A 
HETATM   27  C   UNK N   1      85.454  26.833   4.219  0.00  0.00     0.049 A 
HETATM   28  C   UNK N   1      85.838  28.133   4.591  0.00  0.00     0.099 A 
HETATM   29  C   UNK N   1      86.481  28.347   5.820  0.00  0.00     0.098 A 
HETATM   30  C   UNK N   1      86.735  27.262   6.670  0.00  0.00     0.040 A 
HETATM   31  C   UNK N   1      86.348  25.973   6.303  0.00  0.00     0.013 A 
BRANCH  28  32
HETATM   32  O   UNK N   1      85.592  29.181   3.778  0.00  0.00    -0.358 OA
HETATM   33  H   UNK N   1      84.812  29.212   3.204  0.00  0.00     0.218 HD
ENDBRANCH  28  32
BRANCH  29  34
HETATM   34  O   UNK N   1      86.849  29.595   6.176  0.00  0.00    -0.358 OA
HETATM   35  H   UNK N   1      86.217  30.328   6.190  0.00  0.00     0.218 HD
ENDBRANCH  29  34
ENDBRANCH   3  26
BRANCH   7  36
HETATM   36  O   UNK N   1      82.815  19.930   4.348  0.00  0.00    -0.360 OA
HETATM   37  H   UNK N   1      82.199  19.318   4.775  0.00  0.00     0.217 HD
ENDBRANCH   7  36
BRANCH  10  38
HETATM   38  O   UNK N   1      86.739  18.905   6.844  0.00  0.00    -0.361 OA
HETATM   39  H   UNK N   1      87.557  18.586   6.435  0.00  0.00     0.217 HD
ENDBRANCH  10  38
TORSDOF 11
ENDMDL
MODEL 9
REMARK VINA RESULT:      -5.7      9.391     12.297
REMARK  11 active torsions:
REMARK  status: ('A' for Active; 'I' for Inactive)
REMARK    1  A    between atoms: O_2  and  C_11 
REMARK    2  A    between atoms: O_2  and  C_23 
REMARK    3  A    between atoms: O_3  and  C_17 
REMARK    4  A    between atoms: O_4  and  C_22 
REMARK    5  A    between atoms: O_5  and  C_24 
REMARK    6  A    between atoms: O_7  and  C_26 
REMARK    7  A    between atoms: O_8  and  C_30 
REMARK    8  A    between atoms: O_9  and  C_31 
REMARK    9  A    between atoms: O_10  and  C_32 
REMARK   10  A    between atoms: C_12  and  C_16 
REMARK   11  A    between atoms: C_23  and  C_27 
ROOT
HETATM    1  O   UNK N   1      78.584  28.023  -4.521  0.00  0.00    -0.338 OA
HETATM    2  C   UNK N   1      79.873  27.844  -6.526  0.00  0.00     0.170 C 
HETATM    3  C   UNK N   1      79.369  28.757  -5.398  0.00  0.00     0.192 C 
HETATM    4  C   UNK N   1      80.717  26.711  -5.896  0.00  0.00     0.080 C 
HETATM    5  C   UNK N   1      80.005  26.091  -4.708  0.00  0.00     0.011 A 
HETATM    6  C   UNK N   1      78.949  26.792  -4.080  0.00  0.00     0.081 A 
HETATM    7  C   UNK N   1      80.394  24.835  -4.209  0.00  0.00     0.077 A 
HETATM    8  C   UNK N   1      78.282  26.228  -2.990  0.00  0.00     0.074 A 
HETATM    9  C   UNK N   1      79.722  24.283  -3.106  0.00  0.00     0.073 A 
HETATM   10  C   UNK N   1      78.670  24.975  -2.499  0.00  0.00     0.071 A 
ENDROOT
BRANCH   2  11
HETATM   11  O   UNK N   1      78.782  27.281  -7.154  0.00  0.00    -0.309 OA
BRANCH  11  12
HETATM   12  C   UNK N   1      78.790  26.772  -8.413  0.00  0.00     0.294 C 
HETATM   13  O   UNK N   1      79.131  27.463  -9.362  0.00  0.00    -0.259 OA
BRANCH  12  14
HETATM   14  C   UNK N   1      78.375  25.370  -8.609  0.00  0.00     0.045 A 
HETATM   15  C   UNK N   1      78.185  24.839  -9.895  0.00  0.00     0.057 A 
HETATM   16  C   UNK N   1      77.778  23.504 -10.054  0.00  0.00     0.102 A 
HETATM   17  C   UNK N   1      77.584  22.689  -8.921  0.00  0.00     0.132 A 
HETATM   18  C   UNK N   1      77.796  23.215  -7.639  0.00  0.00     0.102 A 
HETATM   19  C   UNK N   1      78.180  24.551  -7.488  0.00  0.00     0.057 A 
BRANCH  16  20
HETATM   20  O   UNK N   1      77.570  23.002 -11.290  0.00  0.00    -0.358 OA
HETATM   21  H   UNK N   1      76.716  23.083 -11.735  0.00  0.00     0.218 HD
ENDBRANCH  16  20
BRANCH  17  22
HETATM   22  O   UNK N   1      77.194  21.403  -9.049  0.00  0.00    -0.356 OA
HETATM   23  H   UNK N   1      76.631  21.102  -9.776  0.00  0.00     0.218 HD
ENDBRANCH  17  22
BRANCH  18  24
HETATM   24  O   UNK N   1      77.633  22.429  -6.554  0.00  0.00    -0.358 OA
HETATM   25  H   UNK N   1      76.828  22.467  -6.017  0.00  0.00     0.218 HD
ENDBRANCH  18  24
ENDBRANCH  12  14
ENDBRANCH  11  12
ENDBRANCH   2  11
BRANCH   3  26
HETATM   26  C   UNK N   1      78.604  29.951  -5.927  0.00  0.00    -0.024 A 
HETATM   27  C   UNK N   1      77.504  30.486  -5.229  0.00  0.00     0.049 A 
HETATM   28  C   UNK N   1      76.818  31.605  -5.733  0.00  0.00     0.099 A 
HETATM   29  C   UNK N   1      77.226  32.187  -6.943  0.00  0.00     0.098 A 
HETATM   30  C   UNK N   1      78.316  31.650  -7.642  0.00  0.00     0.040 A 
HETATM   31  C   UNK N   1      79.000  30.543  -7.137  0.00  0.00     0.013 A 
BRANCH  28  32
HETATM   32  O   UNK N   1      75.771  32.129  -5.063  0.00  0.00    -0.358 OA
HETATM   33  H   UNK N   1      75.891  32.777  -4.352  0.00  0.00     0.218 HD
ENDBRANCH  28  32
BRANCH  29  34
HETATM   34  O   UNK N   1      76.567  33.261  -7.426  0.00  0.00    -0.358 OA
HETATM   35  H   UNK N   1      75.839  33.673  -6.939  0.00  0.00     0.218 HD
ENDBRANCH  29  34
ENDBRANCH   3  26
BRANCH   7  36
HETATM   36  O   UNK N   1      81.405  24.159  -4.796  0.00  0.00    -0.360 OA
HETATM   37  H   UNK N   1      81.468  24.068  -5.757  0.00  0.00     0.217 HD
ENDBRANCH   7  36
BRANCH  10  38
HETATM   38  O   UNK N   1      78.042  24.431  -1.435  0.00  0.00    -0.361 OA
HETATM   39  H   UNK N   1      77.688  23.530  -1.459  0.00  0.00     0.217 HD
ENDBRANCH  10  38
TORSDOF 11
ENDMDL
