MODEL 1
REMARK VINA RESULT:      -6.3      0.000      0.000
REMARK  13 active torsions:
REMARK  status: ('A' for Active; 'I' for Inactive)
REMARK    1  A    between atoms: O_3  and  C_14 
REMARK    2  A    between atoms: O_4  and  C_20 
REMARK    3  A    between atoms: O_5  and  C_24 
REMARK    4  A    between atoms: O_6  and  C_27 
REMARK    5  A    between atoms: O_7  and  C_26 
REMARK    6  A    between atoms: O_8  and  C_33 
REMARK    7  A    between atoms: O_9  and  C_37 
REMARK    8  A    between atoms: O_10  and  C_39 
REMARK    9  A    between atoms: O_11  and  C_40 
REMARK   10  A    between atoms: O_12  and  C_42 
REMARK   11  A    between atoms: C_13  and  C_15 
REMARK   12  A    between atoms: C_16  and  C_25 
REMARK   13  A    between atoms: C_21  and  C_29 
ROOT
HETATM    1  O   UNK N   1      81.836  24.679   5.409  0.00  0.00    -0.338 OA
HETATM    2  C   UNK N   1      82.285  27.452   4.813  0.00  0.00     0.094 C 
HETATM    3  C   UNK N   1      82.496  26.306   3.783  0.00  0.00     0.165 C 
HETATM    4  C   UNK N   1      81.570  25.127   4.122  0.00  0.00     0.191 C 
HETATM    5  C   UNK N   1      82.158  26.922   6.237  0.00  0.00     0.020 A 
HETATM    6  C   UNK N   1      81.956  25.536   6.457  0.00  0.00     0.082 A 
HETATM    7  C   UNK N   1      82.209  27.798   7.339  0.00  0.00     0.078 A 
HETATM    8  C   UNK N   1      81.855  25.042   7.761  0.00  0.00     0.074 A 
HETATM    9  C   UNK N   1      82.087  27.289   8.641  0.00  0.00     0.073 A 
HETATM   10  C   UNK N   1      81.918  25.913   8.852  0.00  0.00     0.071 A 
ENDROOT
BRANCH   2  11
HETATM   11  C   UNK N   1      81.124  28.376   4.413  0.00  0.00     0.020 A 
HETATM   12  C   UNK N   1      81.414  29.568   3.703  0.00  0.00     0.088 A 
HETATM   13  O   UNK N   1      82.697  29.853   3.350  0.00  0.00    -0.337 OA
HETATM   14  C   UNK N   1      80.377  30.455   3.339  0.00  0.00     0.012 A 
HETATM   15  C   UNK N   1      83.006  30.812   2.394  0.00  0.00     0.191 C 
HETATM   16  C   UNK N   1      82.204  32.086   2.684  0.00  0.00     0.156 C 
HETATM   17  C   UNK N   1      80.705  31.743   2.606  0.00  0.00     0.079 C 
HETATM   18  C   UNK N   1      79.045  30.134   3.631  0.00  0.00     0.077 A 
HETATM   19  C   UNK N   1      78.750  28.949   4.310  0.00  0.00     0.074 A 
HETATM   20  C   UNK N   1      79.768  28.074   4.707  0.00  0.00     0.078 A 
BRANCH  15  21
HETATM   21  C   UNK N   1      84.491  31.085   2.359  0.00  0.00    -0.024 A 
HETATM   22  C   UNK N   1      85.405  30.202   2.960  0.00  0.00     0.049 A 
HETATM   23  C   UNK N   1      86.781  30.478   2.932  0.00  0.00     0.099 A 
HETATM   24  C   UNK N   1      87.247  31.645   2.309  0.00  0.00     0.098 A 
HETATM   25  C   UNK N   1      86.336  32.528   1.715  0.00  0.00     0.040 A 
HETATM   26  C   UNK N   1      84.968  32.250   1.737  0.00  0.00     0.013 A 
BRANCH  23  27
HETATM   27  O   UNK N   1      87.659  29.628   3.504  0.00  0.00    -0.358 OA
HETATM   28  H   UNK N   1      87.418  29.085   4.268  0.00  0.00     0.218 HD
ENDBRANCH  23  27
BRANCH  24  29
HETATM   29  O   UNK N   1      88.570  31.911   2.289  0.00  0.00    -0.358 OA
HETATM   30  H   UNK N   1      89.018  32.315   3.046  0.00  0.00     0.218 HD
ENDBRANCH  24  29
ENDBRANCH  15  21
BRANCH  16  31
HETATM   31  O   UNK N   1      82.502  32.555   3.976  0.00  0.00    -0.392 OA
HETATM   32  H   UNK N   1      81.873  33.300   4.165  0.00  0.00     0.210 HD
ENDBRANCH  16  31
BRANCH  18  33
HETATM   33  O   UNK N   1      78.051  30.970   3.263  0.00  0.00    -0.360 OA
HETATM   34  H   UNK N   1      78.216  31.746   2.707  0.00  0.00     0.217 HD
ENDBRANCH  18  33
BRANCH  20  35
HETATM   35  O   UNK N   1      79.440  26.941   5.365  0.00  0.00    -0.360 OA
HETATM   36  H   UNK N   1      78.546  26.572   5.338  0.00  0.00     0.217 HD
ENDBRANCH  20  35
ENDBRANCH   2  11
BRANCH   3  37
HETATM   37  O   UNK N   1      83.841  25.884   3.764  0.00  0.00    -0.392 OA
HETATM   38  H   UNK N   1      84.424  26.664   3.954  0.00  0.00     0.210 HD
ENDBRANCH   3  37
BRANCH   4  39
HETATM   39  C   UNK N   1      81.701  24.008   3.118  0.00  0.00    -0.024 A 
HETATM   40  C   UNK N   1      82.039  22.723   3.565  0.00  0.00     0.049 A 
HETATM   41  C   UNK N   1      82.146  21.659   2.660  0.00  0.00     0.099 A 
HETATM   42  C   UNK N   1      81.921  21.884   1.289  0.00  0.00     0.098 A 
HETATM   43  C   UNK N   1      81.586  23.167   0.841  0.00  0.00     0.040 A 
HETATM   44  C   UNK N   1      81.470  24.224   1.748  0.00  0.00     0.013 A 
BRANCH  41  45
HETATM   45  O   UNK N   1      82.459  20.424   3.102  0.00  0.00    -0.358 OA
HETATM   46  H   UNK N   1      82.274  19.633   2.574  0.00  0.00     0.218 HD
ENDBRANCH  41  45
BRANCH  42  47
HETATM   47  O   UNK N   1      82.019  20.877   0.394  0.00  0.00    -0.358 OA
HETATM   48  H   UNK N   1      81.246  20.511  -0.056  0.00  0.00     0.218 HD
ENDBRANCH  42  47
ENDBRANCH   4  39
BRANCH   7  49
HETATM   49  O   UNK N   1      82.372  29.123   7.141  0.00  0.00    -0.360 OA
HETATM   50  H   UNK N   1      82.928  29.468   6.429  0.00  0.00     0.217 HD
ENDBRANCH   7  49
BRANCH  10  51
HETATM   51  O   UNK N   1      81.801  25.421  10.103  0.00  0.00    -0.361 OA
HETATM   52  H   UNK N   1      82.399  24.737  10.438  0.00  0.00     0.217 HD
ENDBRANCH  10  51
TORSDOF 13
ENDMDL
MODEL 2
REMARK VINA RESULT:      -6.3      9.845     14.181
REMARK  13 active torsions:
REMARK  status: ('A' for Active; 'I' for Inactive)
REMARK    1  A    between atoms: O_3  and  C_14 
REMARK    2  A    between atoms: O_4  and  C_20 
REMARK    3  A    between atoms: O_5  and  C_24 
REMARK    4  A    between atoms: O_6  and  C_27 
REMARK    5  A    between atoms: O_7  and  C_26 
REMARK    6  A    between atoms: O_8  and  C_33 
REMARK    7  A    between atoms: O_9  and  C_37 
REMARK    8  A    between atoms: O_10  and  C_39 
REMARK    9  A    between atoms: O_11  and  C_40 
REMARK   10  A    between atoms: O_12  and  C_42 
REMARK   11  A    between atoms: C_13  and  C_15 
REMARK   12  A    between atoms: C_16  and  C_25 
REMARK   13  A    between atoms: C_21  and  C_29 
ROOT
HETATM    1  O   UNK N   1      78.303  27.822  -4.893  0.00  0.00    -0.338 OA
HETATM    2  C   UNK N   1      79.565  25.982  -6.701  0.00  0.00     0.094 C 
HETATM    3  C   UNK N   1      78.869  27.295  -7.158  0.00  0.00     0.165 C 
HETATM    4  C   UNK N   1      78.924  28.333  -6.025  0.00  0.00     0.191 C 
HETATM    5  C   UNK N   1      79.203  25.615  -5.266  0.00  0.00     0.020 A 
HETATM    6  C   UNK N   1      78.564  26.569  -4.435  0.00  0.00     0.082 A 
HETATM    7  C   UNK N   1      79.524  24.347  -4.744  0.00  0.00     0.078 A 
HETATM    8  C   UNK N   1      78.214  26.232  -3.124  0.00  0.00     0.074 A 
HETATM    9  C   UNK N   1      79.185  24.031  -3.420  0.00  0.00     0.073 A 
HETATM   10  C   UNK N   1      78.525  24.969  -2.613  0.00  0.00     0.071 A 
ENDROOT
BRANCH   2  11
HETATM   11  C   UNK N   1      81.081  26.022  -6.944  0.00  0.00     0.020 A 
HETATM   12  C   UNK N   1      81.603  25.405  -8.108  0.00  0.00     0.088 A 
HETATM   13  O   UNK N   1      80.759  24.830  -9.009  0.00  0.00    -0.337 OA
HETATM   14  C   UNK N   1      82.994  25.399  -8.355  0.00  0.00     0.012 A 
HETATM   15  C   UNK N   1      81.160  24.506 -10.298  0.00  0.00     0.191 C 
HETATM   16  C   UNK N   1      82.504  23.769 -10.233  0.00  0.00     0.156 C 
HETATM   17  C   UNK N   1      83.541  24.708  -9.590  0.00  0.00     0.079 C 
HETATM   18  C   UNK N   1      83.865  26.054  -7.474  0.00  0.00     0.077 A 
HETATM   19  C   UNK N   1      83.355  26.684  -6.336  0.00  0.00     0.074 A 
HETATM   20  C   UNK N   1      81.983  26.672  -6.059  0.00  0.00     0.078 A 
BRANCH  15  21
HETATM   21  C   UNK N   1      80.109  23.684 -11.003  0.00  0.00    -0.024 A 
HETATM   22  C   UNK N   1      78.832  23.503 -10.442  0.00  0.00     0.049 A 
HETATM   23  C   UNK N   1      77.870  22.723 -11.103  0.00  0.00     0.099 A 
HETATM   24  C   UNK N   1      78.186  22.114 -12.326  0.00  0.00     0.098 A 
HETATM   25  C   UNK N   1      79.460  22.289 -12.883  0.00  0.00     0.040 A 
HETATM   26  C   UNK N   1      80.414  23.070 -12.229  0.00  0.00     0.013 A 
BRANCH  23  27
HETATM   27  O   UNK N   1      76.644  22.554 -10.568  0.00  0.00    -0.358 OA
HETATM   28  H   UNK N   1      76.166  21.716 -10.644  0.00  0.00     0.218 HD
ENDBRANCH  23  27
BRANCH  24  29
HETATM   29  O   UNK N   1      77.262  21.360 -12.957  0.00  0.00    -0.358 OA
HETATM   30  H   UNK N   1      77.045  21.498 -13.891  0.00  0.00     0.218 HD
ENDBRANCH  24  29
ENDBRANCH  15  21
BRANCH  16  31
HETATM   31  O   UNK N   1      82.379  22.612  -9.443  0.00  0.00    -0.392 OA
HETATM   32  H   UNK N   1      82.572  22.880  -8.507  0.00  0.00     0.210 HD
ENDBRANCH  16  31
BRANCH  18  33
HETATM   33  O   UNK N   1      85.191  26.069  -7.721  0.00  0.00    -0.360 OA
HETATM   34  H   UNK N   1      85.755  26.804  -7.440  0.00  0.00     0.217 HD
ENDBRANCH  18  33
BRANCH  20  35
HETATM   35  O   UNK N   1      81.532  27.290  -4.946  0.00  0.00    -0.360 OA
HETATM   36  H   UNK N   1      81.579  28.250  -4.837  0.00  0.00     0.217 HD
ENDBRANCH  20  35
ENDBRANCH   2  11
BRANCH   3  37
HETATM   37  O   UNK N   1      77.533  27.054  -7.538  0.00  0.00    -0.392 OA
HETATM   38  H   UNK N   1      76.934  27.329  -6.797  0.00  0.00     0.210 HD
ENDBRANCH   3  37
BRANCH   4  39
HETATM   39  C   UNK N   1      78.306  29.645  -6.439  0.00  0.00    -0.024 A 
HETATM   40  C   UNK N   1      77.355  30.249  -5.604  0.00  0.00     0.049 A 
HETATM   41  C   UNK N   1      76.780  31.478  -5.951  0.00  0.00     0.099 A 
HETATM   42  C   UNK N   1      77.152  32.109  -7.152  0.00  0.00     0.098 A 
HETATM   43  C   UNK N   1      78.099  31.506  -7.989  0.00  0.00     0.040 A 
HETATM   44  C   UNK N   1      78.679  30.284  -7.635  0.00  0.00     0.013 A 
BRANCH  41  45
HETATM   45  O   UNK N   1      75.876  32.056  -5.133  0.00  0.00    -0.358 OA
HETATM   46  H   UNK N   1      76.118  32.787  -4.545  0.00  0.00     0.218 HD
ENDBRANCH  41  45
BRANCH  42  47
HETATM   47  O   UNK N   1      76.613  33.293  -7.513  0.00  0.00    -0.358 OA
HETATM   48  H   UNK N   1      77.140  33.998  -7.913  0.00  0.00     0.218 HD
ENDBRANCH  42  47
ENDBRANCH   4  39
BRANCH   7  49
HETATM   49  O   UNK N   1      80.159  23.440  -5.516  0.00  0.00    -0.360 OA
HETATM   50  H   UNK N   1      80.982  23.651  -5.979  0.00  0.00     0.217 HD
ENDBRANCH   7  49
BRANCH  10  51
HETATM   51  O   UNK N   1      78.196  24.667  -1.339  0.00  0.00    -0.361 OA
HETATM   52  H   UNK N   1      77.801  23.816  -1.105  0.00  0.00     0.217 HD
ENDBRANCH  10  51
TORSDOF 13
ENDMDL
MODEL 3
REMARK VINA RESULT:      -6.3      8.853     13.149
REMARK  13 active torsions:
REMARK  status: ('A' for Active; 'I' for Inactive)
REMARK    1  A    between atoms: O_3  and  C_14 
REMARK    2  A    between atoms: O_4  and  C_20 
REMARK    3  A    between atoms: O_5  and  C_24 
REMARK    4  A    between atoms: O_6  and  C_27 
REMARK    5  A    between atoms: O_7  and  C_26 
REMARK    6  A    between atoms: O_8  and  C_33 
REMARK    7  A    between atoms: O_9  and  C_37 
REMARK    8  A    between atoms: O_10  and  C_39 
REMARK    9  A    between atoms: O_11  and  C_40 
REMARK   10  A    between atoms: O_12  and  C_42 
REMARK   11  A    between atoms: C_13  and  C_15 
REMARK   12  A    between atoms: C_16  and  C_25 
REMARK   13  A    between atoms: C_21  and  C_29 
ROOT
HETATM    1  O   UNK N   1      77.889  27.159  -8.281  0.00  0.00    -0.338 OA
HETATM    2  C   UNK N   1      79.060  25.916  -5.973  0.00  0.00     0.094 C 
HETATM    3  C   UNK N   1      78.796  25.169  -7.310  0.00  0.00     0.165 C 
HETATM    4  C   UNK N   1      78.839  26.166  -8.479  0.00  0.00     0.191 C 
HETATM    5  C   UNK N   1      78.322  27.250  -5.910  0.00  0.00     0.020 A 
HETATM    6  C   UNK N   1      77.753  27.795  -7.088  0.00  0.00     0.082 A 
HETATM    7  C   UNK N   1      78.227  27.964  -4.700  0.00  0.00     0.078 A 
HETATM    8  C   UNK N   1      77.062  29.009  -7.034  0.00  0.00     0.074 A 
HETATM    9  C   UNK N   1      77.547  29.191  -4.666  0.00  0.00     0.073 A 
HETATM   10  C   UNK N   1      76.959  29.710  -5.829  0.00  0.00     0.071 A 
ENDROOT
BRANCH   2  11
HETATM   11  C   UNK N   1      80.561  26.049  -5.676  0.00  0.00     0.020 A 
HETATM   12  C   UNK N   1      81.178  25.091  -4.832  0.00  0.00     0.088 A 
HETATM   13  O   UNK N   1      80.449  24.053  -4.337  0.00  0.00    -0.337 OA
HETATM   14  C   UNK N   1      82.551  25.192  -4.516  0.00  0.00     0.012 A 
HETATM   15  C   UNK N   1      81.045  22.925  -3.788  0.00  0.00     0.191 C 
HETATM   16  C   UNK N   1      82.139  23.365  -2.807  0.00  0.00     0.156 C 
HETATM   17  C   UNK N   1      83.190  24.177  -3.587  0.00  0.00     0.079 C 
HETATM   18  C   UNK N   1      83.327  26.213  -5.080  0.00  0.00     0.077 A 
HETATM   19  C   UNK N   1      82.730  27.147  -5.931  0.00  0.00     0.074 A 
HETATM   20  C   UNK N   1      81.365  27.080  -6.230  0.00  0.00     0.078 A 
BRANCH  15  21
HETATM   21  C   UNK N   1      80.020  22.042  -3.118  0.00  0.00    -0.024 A 
HETATM   22  C   UNK N   1      78.670  22.070  -3.510  0.00  0.00     0.049 A 
HETATM   23  C   UNK N   1      77.727  21.254  -2.866  0.00  0.00     0.099 A 
HETATM   24  C   UNK N   1      78.131  20.411  -1.821  0.00  0.00     0.098 A 
HETATM   25  C   UNK N   1      79.475  20.385  -1.426  0.00  0.00     0.040 A 
HETATM   26  C   UNK N   1      80.414  21.193  -2.071  0.00  0.00     0.013 A 
BRANCH  23  27
HETATM   27  O   UNK N   1      76.433  21.277  -3.246  0.00  0.00    -0.358 OA
HETATM   28  H   UNK N   1      75.712  21.257  -2.601  0.00  0.00     0.218 HD
ENDBRANCH  23  27
BRANCH  24  29
HETATM   29  O   UNK N   1      77.221  19.630  -1.200  0.00  0.00    -0.358 OA
HETATM   30  H   UNK N   1      76.444  19.289  -1.666  0.00  0.00     0.218 HD
ENDBRANCH  24  29
ENDBRANCH  15  21
BRANCH  16  31
HETATM   31  O   UNK N   1      81.584  24.177  -1.802  0.00  0.00    -0.392 OA
HETATM   32  H   UNK N   1      80.652  24.379  -2.076  0.00  0.00     0.210 HD
ENDBRANCH  16  31
BRANCH  18  33
HETATM   33  O   UNK N   1      84.644  26.296  -4.797  0.00  0.00    -0.360 OA
HETATM   34  H   UNK N   1      85.046  27.116  -4.476  0.00  0.00     0.217 HD
ENDBRANCH  18  33
BRANCH  20  35
HETATM   35  O   UNK N   1      80.827  28.006  -7.054  0.00  0.00    -0.360 OA
HETATM   36  H   UNK N   1      80.651  27.823  -7.988  0.00  0.00     0.217 HD
ENDBRANCH  20  35
ENDBRANCH   2  11
BRANCH   3  37
HETATM   37  O   UNK N   1      77.555  24.501  -7.280  0.00  0.00    -0.392 OA
HETATM   38  H   UNK N   1      77.377  24.197  -6.353  0.00  0.00     0.210 HD
ENDBRANCH   3  37
BRANCH   4  39
HETATM   39  C   UNK N   1      78.640  25.478  -9.807  0.00  0.00    -0.024 A 
HETATM   40  C   UNK N   1      78.451  26.255 -10.959  0.00  0.00     0.049 A 
HETATM   41  C   UNK N   1      78.286  25.646 -12.209  0.00  0.00     0.099 A 
HETATM   42  C   UNK N   1      78.300  24.242 -12.310  0.00  0.00     0.098 A 
HETATM   43  C   UNK N   1      78.485  23.465 -11.160  0.00  0.00     0.040 A 
HETATM   44  C   UNK N   1      78.661  24.077  -9.915  0.00  0.00     0.013 A 
BRANCH  41  45
HETATM   45  O   UNK N   1      78.118  26.403 -13.314  0.00  0.00    -0.358 OA
HETATM   46  H   UNK N   1      78.871  26.694 -13.848  0.00  0.00     0.218 HD
ENDBRANCH  41  45
BRANCH  42  47
HETATM   47  O   UNK N   1      78.141  23.628 -13.502  0.00  0.00    -0.358 OA
HETATM   48  H   UNK N   1      77.708  22.768 -13.584  0.00  0.00     0.218 HD
ENDBRANCH  42  47
ENDBRANCH   4  39
BRANCH   7  49
HETATM   49  O   UNK N   1      78.791  27.470  -3.578  0.00  0.00    -0.360 OA
HETATM   50  H   UNK N   1      79.431  26.745  -3.605  0.00  0.00     0.217 HD
ENDBRANCH   7  49
BRANCH  10  51
HETATM   51  O   UNK N   1      76.304  30.889  -5.799  0.00  0.00    -0.361 OA
HETATM   52  H   UNK N   1      76.002  31.323  -6.609  0.00  0.00     0.217 HD
ENDBRANCH  10  51
TORSDOF 13
ENDMDL
MODEL 4
REMARK VINA RESULT:      -6.2      4.815      8.800
REMARK  13 active torsions:
REMARK  status: ('A' for Active; 'I' for Inactive)
REMARK    1  A    between atoms: O_3  and  C_14 
REMARK    2  A    between atoms: O_4  and  C_20 
REMARK    3  A    between atoms: O_5  and  C_24 
REMARK    4  A    between atoms: O_6  and  C_27 
REMARK    5  A    between atoms: O_7  and  C_26 
REMARK    6  A    between atoms: O_8  and  C_33 
REMARK    7  A    between atoms: O_9  and  C_37 
REMARK    8  A    between atoms: O_10  and  C_39 
REMARK    9  A    between atoms: O_11  and  C_40 
REMARK   10  A    between atoms: O_12  and  C_42 
REMARK   11  A    between atoms: C_13  and  C_15 
REMARK   12  A    between atoms: C_16  and  C_25 
REMARK   13  A    between atoms: C_21  and  C_29 
ROOT
HETATM    1  O   UNK N   1      85.489  27.821   7.045  0.00  0.00    -0.338 OA
HETATM    2  C   UNK N   1      84.711  29.368   9.335  0.00  0.00     0.094 C 
HETATM    3  C   UNK N   1      83.751  28.404   8.582  0.00  0.00     0.165 C 
HETATM    4  C   UNK N   1      84.561  27.277   7.922  0.00  0.00     0.191 C 
HETATM    5  C   UNK N   1      85.973  29.660   8.529  0.00  0.00     0.020 A 
HETATM    6  C   UNK N   1      86.284  28.866   7.398  0.00  0.00     0.082 A 
HETATM    7  C   UNK N   1      86.850  30.693   8.913  0.00  0.00     0.078 A 
HETATM    8  C   UNK N   1      87.430  29.139   6.645  0.00  0.00     0.074 A 
HETATM    9  C   UNK N   1      88.007  30.942   8.159  0.00  0.00     0.073 A 
HETATM   10  C   UNK N   1      88.293  30.172   7.023  0.00  0.00     0.071 A 
ENDROOT
BRANCH   2  11
HETATM   11  C   UNK N   1      85.012  28.882  10.761  0.00  0.00     0.020 A 
HETATM   12  C   UNK N   1      84.172  29.310  11.820  0.00  0.00     0.088 A 
HETATM   13  O   UNK N   1      83.096  30.100  11.556  0.00  0.00    -0.337 OA
HETATM   14  C   UNK N   1      84.430  28.903  13.148  0.00  0.00     0.012 A 
HETATM   15  C   UNK N   1      82.068  30.283  12.472  0.00  0.00     0.191 C 
HETATM   16  C   UNK N   1      82.673  30.592  13.847  0.00  0.00     0.156 C 
HETATM   17  C   UNK N   1      83.540  29.394  14.275  0.00  0.00     0.079 C 
HETATM   18  C   UNK N   1      85.490  28.028  13.420  0.00  0.00     0.077 A 
HETATM   19  C   UNK N   1      86.308  27.585  12.378  0.00  0.00     0.074 A 
HETATM   20  C   UNK N   1      86.086  28.002  11.060  0.00  0.00     0.078 A 
BRANCH  15  21
HETATM   21  C   UNK N   1      81.126  31.372  12.021  0.00  0.00    -0.024 A 
HETATM   22  C   UNK N   1      79.746  31.132  11.893  0.00  0.00     0.049 A 
HETATM   23  C   UNK N   1      78.886  32.151  11.458  0.00  0.00     0.099 A 
HETATM   24  C   UNK N   1      79.405  33.415  11.140  0.00  0.00     0.098 A 
HETATM   25  C   UNK N   1      80.780  33.654  11.262  0.00  0.00     0.040 A 
HETATM   26  C   UNK N   1      81.635  32.642  11.702  0.00  0.00     0.013 A 
BRANCH  23  27
HETATM   27  O   UNK N   1      77.561  31.922  11.341  0.00  0.00    -0.358 OA
HETATM   28  H   UNK N   1      77.174  31.583  10.522  0.00  0.00     0.218 HD
ENDBRANCH  23  27
BRANCH  24  29
HETATM   29  O   UNK N   1      78.575  34.392  10.717  0.00  0.00    -0.358 OA
HETATM   30  H   UNK N   1      77.814  34.201  10.151  0.00  0.00     0.218 HD
ENDBRANCH  24  29
ENDBRANCH  15  21
BRANCH  16  31
HETATM   31  O   UNK N   1      83.481  31.740  13.768  0.00  0.00    -0.392 OA
HETATM   32  H   UNK N   1      84.346  31.458  13.369  0.00  0.00     0.210 HD
ENDBRANCH  16  31
BRANCH  18  33
HETATM   33  O   UNK N   1      85.723  27.622  14.686  0.00  0.00    -0.360 OA
HETATM   34  H   UNK N   1      86.599  27.332  14.976  0.00  0.00     0.217 HD
ENDBRANCH  18  33
BRANCH  20  35
HETATM   35  O   UNK N   1      86.903  27.552  10.083  0.00  0.00    -0.360 OA
HETATM   36  H   UNK N   1      87.812  27.868   9.988  0.00  0.00     0.217 HD
ENDBRANCH  20  35
ENDBRANCH   2  11
BRANCH   3  37
HETATM   37  O   UNK N   1      82.994  29.096   7.616  0.00  0.00    -0.392 OA
HETATM   38  H   UNK N   1      83.261  28.781   6.714  0.00  0.00     0.210 HD
ENDBRANCH   3  37
BRANCH   4  39
HETATM   39  C   UNK N   1      83.667  26.284   7.222  0.00  0.00    -0.024 A 
HETATM   40  C   UNK N   1      82.439  25.938   7.803  0.00  0.00     0.049 A 
HETATM   41  C   UNK N   1      81.578  25.036   7.167  0.00  0.00     0.099 A 
HETATM   42  C   UNK N   1      81.952  24.463   5.937  0.00  0.00     0.098 A 
HETATM   43  C   UNK N   1      83.179  24.804   5.357  0.00  0.00     0.040 A 
HETATM   44  C   UNK N   1      84.032  25.713   5.990  0.00  0.00     0.013 A 
BRANCH  41  45
HETATM   45  O   UNK N   1      80.392  24.721   7.728  0.00  0.00    -0.358 OA
HETATM   46  H   UNK N   1      79.812  24.046   7.345  0.00  0.00     0.218 HD
ENDBRANCH  41  45
BRANCH  42  47
HETATM   47  O   UNK N   1      81.142  23.589   5.301  0.00  0.00    -0.358 OA
HETATM   48  H   UNK N   1      81.398  22.670   5.146  0.00  0.00     0.218 HD
ENDBRANCH  42  47
ENDBRANCH   4  39
BRANCH   7  49
HETATM   49  O   UNK N   1      86.579  31.437  10.006  0.00  0.00    -0.360 OA
HETATM   50  H   UNK N   1      87.282  31.804  10.560  0.00  0.00     0.217 HD
ENDBRANCH   7  49
BRANCH  10  51
HETATM   51  O   UNK N   1      89.404  30.410   6.295  0.00  0.00    -0.361 OA
HETATM   52  H   UNK N   1      90.122  29.763   6.238  0.00  0.00     0.217 HD
ENDBRANCH  10  51
TORSDOF 13
ENDMDL
MODEL 5
REMARK VINA RESULT:      -6.1      2.506      5.509
REMARK  13 active torsions:
REMARK  status: ('A' for Active; 'I' for Inactive)
REMARK    1  A    between atoms: O_3  and  C_14 
REMARK    2  A    between atoms: O_4  and  C_20 
REMARK    3  A    between atoms: O_5  and  C_24 
REMARK    4  A    between atoms: O_6  and  C_27 
REMARK    5  A    between atoms: O_7  and  C_26 
REMARK    6  A    between atoms: O_8  and  C_33 
REMARK    7  A    between atoms: O_9  and  C_37 
REMARK    8  A    between atoms: O_10  and  C_39 
REMARK    9  A    between atoms: O_11  and  C_40 
REMARK   10  A    between atoms: O_12  and  C_42 
REMARK   11  A    between atoms: C_13  and  C_15 
REMARK   12  A    between atoms: C_16  and  C_25 
REMARK   13  A    between atoms: C_21  and  C_29 
ROOT
HETATM    1  O   UNK N   1      81.711  24.469   4.919  0.00  0.00    -0.338 OA
HETATM    2  C   UNK N   1      84.565  24.512   5.232  0.00  0.00     0.094 C 
HETATM    3  C   UNK N   1      83.807  23.433   4.408  0.00  0.00     0.165 C 
HETATM    4  C   UNK N   1      82.496  24.023   3.864  0.00  0.00     0.191 C 
HETATM    5  C   UNK N   1      83.622  25.315   6.123  0.00  0.00     0.020 A 
HETATM    6  C   UNK N   1      82.222  25.230   5.922  0.00  0.00     0.082 A 
HETATM    7  C   UNK N   1      84.129  26.166   7.124  0.00  0.00     0.078 A 
HETATM    8  C   UNK N   1      81.353  25.951   6.746  0.00  0.00     0.074 A 
HETATM    9  C   UNK N   1      83.244  26.898   7.930  0.00  0.00     0.073 A 
HETATM   10  C   UNK N   1      81.858  26.786   7.746  0.00  0.00     0.071 A 
ENDROOT
BRANCH   2  11
HETATM   11  C   UNK N   1      85.448  25.399   4.341  0.00  0.00     0.020 A 
HETATM   12  C   UNK N   1      84.840  26.449   3.608  0.00  0.00     0.088 A 
HETATM   13  O   UNK N   1      83.505  26.684   3.737  0.00  0.00    -0.337 OA
HETATM   14  C   UNK N   1      85.614  27.272   2.760  0.00  0.00     0.012 A 
HETATM   15  C   UNK N   1      82.918  27.869   3.316  0.00  0.00     0.191 C 
HETATM   16  C   UNK N   1      83.416  28.201   1.904  0.00  0.00     0.156 C 
HETATM   17  C   UNK N   1      84.945  28.373   1.958  0.00  0.00     0.079 C 
HETATM   18  C   UNK N   1      87.000  27.088   2.679  0.00  0.00     0.077 A 
HETATM   19  C   UNK N   1      87.609  26.069   3.416  0.00  0.00     0.074 A 
HETATM   20  C   UNK N   1      86.854  25.225   4.238  0.00  0.00     0.078 A 
BRANCH  15  21
HETATM   21  C   UNK N   1      81.412  27.776   3.367  0.00  0.00    -0.024 A 
HETATM   22  C   UNK N   1      80.703  26.970   2.459  0.00  0.00     0.049 A 
HETATM   23  C   UNK N   1      79.302  26.906   2.509  0.00  0.00     0.099 A 
HETATM   24  C   UNK N   1      78.603  27.658   3.465  0.00  0.00     0.098 A 
HETATM   25  C   UNK N   1      79.308  28.466   4.367  0.00  0.00     0.040 A 
HETATM   26  C   UNK N   1      80.702  28.524   4.321  0.00  0.00     0.013 A 
BRANCH  23  27
HETATM   27  O   UNK N   1      78.623  26.128   1.642  0.00  0.00    -0.358 OA
HETATM   28  H   UNK N   1      78.995  25.876   0.785  0.00  0.00     0.218 HD
ENDBRANCH  23  27
BRANCH  24  29
HETATM   29  O   UNK N   1      77.255  27.600   3.508  0.00  0.00    -0.358 OA
HETATM   30  H   UNK N   1      76.752  28.016   4.223  0.00  0.00     0.218 HD
ENDBRANCH  24  29
ENDBRANCH  15  21
BRANCH  16  31
HETATM   31  O   UNK N   1      83.102  27.148   1.026  0.00  0.00    -0.392 OA
HETATM   32  H   UNK N   1      82.122  27.006   1.083  0.00  0.00     0.210 HD
ENDBRANCH  16  31
BRANCH  18  33
HETATM   33  O   UNK N   1      87.743  27.889   1.886  0.00  0.00    -0.360 OA
HETATM   34  H   UNK N   1      88.549  27.573   1.452  0.00  0.00     0.217 HD
ENDBRANCH  18  33
BRANCH  20  35
HETATM   35  O   UNK N   1      87.481  24.249   4.930  0.00  0.00    -0.360 OA
HETATM   36  H   UNK N   1      88.268  23.802   4.589  0.00  0.00     0.217 HD
ENDBRANCH  20  35
ENDBRANCH   2  11
BRANCH   3  37
HETATM   37  O   UNK N   1      83.545  22.290   5.190  0.00  0.00    -0.392 OA
HETATM   38  H   UNK N   1      84.396  21.968   5.583  0.00  0.00     0.210 HD
ENDBRANCH   3  37
BRANCH   4  39
HETATM   39  C   UNK N   1      81.748  23.028   3.012  0.00  0.00    -0.024 A 
HETATM   40  C   UNK N   1      80.926  22.075   3.631  0.00  0.00     0.049 A 
HETATM   41  C   UNK N   1      80.203  21.152   2.866  0.00  0.00     0.099 A 
HETATM   42  C   UNK N   1      80.307  21.175   1.463  0.00  0.00     0.098 A 
HETATM   43  C   UNK N   1      81.129  22.123   0.843  0.00  0.00     0.040 A 
HETATM   44  C   UNK N   1      81.842  23.050   1.609  0.00  0.00     0.013 A 
BRANCH  41  45
HETATM   45  O   UNK N   1      79.405  20.249   3.472  0.00  0.00    -0.358 OA
HETATM   46  H   UNK N   1      78.440  20.293   3.397  0.00  0.00     0.218 HD
ENDBRANCH  41  45
BRANCH  42  47
HETATM   47  O   UNK N   1      79.622  20.297   0.700  0.00  0.00    -0.358 OA
HETATM   48  H   UNK N   1      79.783  20.203  -0.249  0.00  0.00     0.218 HD
ENDBRANCH  42  47
ENDBRANCH   4  39
BRANCH   7  49
HETATM   49  O   UNK N   1      85.462  26.278   7.306  0.00  0.00    -0.360 OA
HETATM   50  H   UNK N   1      86.091  26.073   6.601  0.00  0.00     0.217 HD
ENDBRANCH   7  49
BRANCH  10  51
HETATM   51  O   UNK N   1      81.005  27.489   8.520  0.00  0.00    -0.361 OA
HETATM   52  H   UNK N   1      81.037  28.455   8.565  0.00  0.00     0.217 HD
ENDBRANCH  10  51
TORSDOF 13
ENDMDL
MODEL 6
REMARK VINA RESULT:      -6.1      4.044      9.410
REMARK  13 active torsions:
REMARK  status: ('A' for Active; 'I' for Inactive)
REMARK    1  A    between atoms: O_3  and  C_14 
REMARK    2  A    between atoms: O_4  and  C_20 
REMARK    3  A    between atoms: O_5  and  C_24 
REMARK    4  A    between atoms: O_6  and  C_27 
REMARK    5  A    between atoms: O_7  and  C_26 
REMARK    6  A    between atoms: O_8  and  C_33 
REMARK    7  A    between atoms: O_9  and  C_37 
REMARK    8  A    between atoms: O_10  and  C_39 
REMARK    9  A    between atoms: O_11  and  C_40 
REMARK   10  A    between atoms: O_12  and  C_42 
REMARK   11  A    between atoms: C_13  and  C_15 
REMARK   12  A    between atoms: C_16  and  C_25 
REMARK   13  A    between atoms: C_21  and  C_29 
ROOT
HETATM    1  O   UNK N   1      82.244  25.865   3.302  0.00  0.00    -0.338 OA
HETATM    2  C   UNK N   1      83.145  23.140   3.255  0.00  0.00     0.094 C 
HETATM    3  C   UNK N   1      83.104  24.010   4.543  0.00  0.00     0.165 C 
HETATM    4  C   UNK N   1      82.002  25.073   4.416  0.00  0.00     0.191 C 
HETATM    5  C   UNK N   1      82.993  23.983   1.993  0.00  0.00     0.020 A 
HETATM    6  C   UNK N   1      82.560  25.329   2.095  0.00  0.00     0.082 A 
HETATM    7  C   UNK N   1      83.248  23.431   0.723  0.00  0.00     0.078 A 
HETATM    8  C   UNK N   1      82.435  26.112   0.943  0.00  0.00     0.074 A 
HETATM    9  C   UNK N   1      83.098  24.224  -0.425  0.00  0.00     0.073 A 
HETATM   10  C   UNK N   1      82.700  25.564  -0.316  0.00  0.00     0.071 A 
ENDROOT
BRANCH   2  11
HETATM   11  C   UNK N   1      82.147  21.973   3.318  0.00  0.00     0.020 A 
HETATM   12  C   UNK N   1      82.598  20.714   3.789  0.00  0.00     0.088 A 
HETATM   13  O   UNK N   1      83.882  20.570   4.218  0.00  0.00    -0.337 OA
HETATM   14  C   UNK N   1      81.717  19.611   3.840  0.00  0.00     0.012 A 
HETATM   15  C   UNK N   1      84.291  19.483   4.979  0.00  0.00     0.191 C 
HETATM   16  C   UNK N   1      83.760  18.195   4.339  0.00  0.00     0.156 C 
HETATM   17  C   UNK N   1      82.222  18.262   4.318  0.00  0.00     0.079 C 
HETATM   18  C   UNK N   1      80.374  19.769   3.474  0.00  0.00     0.077 A 
HETATM   19  C   UNK N   1      79.918  21.012   3.030  0.00  0.00     0.074 A 
HETATM   20  C   UNK N   1      80.784  22.109   2.944  0.00  0.00     0.078 A 
BRANCH  15  21
HETATM   21  C   UNK N   1      85.793  19.454   5.123  0.00  0.00    -0.024 A 
HETATM   22  C   UNK N   1      86.412  18.681   6.120  0.00  0.00     0.049 A 
HETATM   23  C   UNK N   1      87.810  18.677   6.250  0.00  0.00     0.099 A 
HETATM   24  C   UNK N   1      88.593  19.456   5.386  0.00  0.00     0.098 A 
HETATM   25  C   UNK N   1      87.977  20.232   4.396  0.00  0.00     0.040 A 
HETATM   26  C   UNK N   1      86.587  20.230   4.262  0.00  0.00     0.013 A 
BRANCH  23  27
HETATM   27  O   UNK N   1      88.404  17.930   7.204  0.00  0.00    -0.358 OA
HETATM   28  H   UNK N   1      88.944  17.158   6.982  0.00  0.00     0.218 HD
ENDBRANCH  23  27
BRANCH  24  29
HETATM   29  O   UNK N   1      89.937  19.455   5.517  0.00  0.00    -0.358 OA
HETATM   30  H   UNK N   1      90.375  18.993   6.246  0.00  0.00     0.218 HD
ENDBRANCH  24  29
ENDBRANCH  15  21
BRANCH  16  31
HETATM   31  O   UNK N   1      84.233  18.085   3.019  0.00  0.00    -0.392 OA
HETATM   32  H   UNK N   1      83.991  17.177   2.700  0.00  0.00     0.210 HD
ENDBRANCH  16  31
BRANCH  18  33
HETATM   33  O   UNK N   1      79.527  18.720   3.544  0.00  0.00    -0.360 OA
HETATM   34  H   UNK N   1      78.783  18.705   4.163  0.00  0.00     0.217 HD
ENDBRANCH  18  33
BRANCH  20  35
HETATM   35  O   UNK N   1      80.303  23.292   2.505  0.00  0.00    -0.360 OA
HETATM   36  H   UNK N   1      80.074  23.442   1.578  0.00  0.00     0.217 HD
ENDBRANCH  20  35
ENDBRANCH   2  11
BRANCH   3  37
HETATM   37  O   UNK N   1      84.352  24.621   4.781  0.00  0.00    -0.392 OA
HETATM   38  H   UNK N   1      84.250  25.281   5.513  0.00  0.00     0.210 HD
ENDBRANCH   3  37
BRANCH   4  39
HETATM   39  C   UNK N   1      81.888  25.911   5.666  0.00  0.00    -0.024 A 
HETATM   40  C   UNK N   1      81.865  25.276   6.916  0.00  0.00     0.049 A 
HETATM   41  C   UNK N   1      81.782  26.027   8.095  0.00  0.00     0.099 A 
HETATM   42  C   UNK N   1      81.711  27.431   8.025  0.00  0.00     0.098 A 
HETATM   43  C   UNK N   1      81.731  28.066   6.777  0.00  0.00     0.040 A 
HETATM   44  C   UNK N   1      81.824  27.314   5.603  0.00  0.00     0.013 A 
BRANCH  41  45
HETATM   45  O   UNK N   1      81.774  25.407   9.293  0.00  0.00    -0.358 OA
HETATM   46  H   UNK N   1      81.095  24.756   9.523  0.00  0.00     0.218 HD
ENDBRANCH  41  45
BRANCH  42  47
HETATM   47  O   UNK N   1      81.629  28.181   9.145  0.00  0.00    -0.358 OA
HETATM   48  H   UNK N   1      82.408  28.575   9.559  0.00  0.00     0.218 HD
ENDBRANCH  42  47
ENDBRANCH   4  39
BRANCH   7  49
HETATM   49  O   UNK N   1      83.631  22.142   0.611  0.00  0.00    -0.360 OA
HETATM   50  H   UNK N   1      83.002  21.413   0.699  0.00  0.00     0.217 HD
ENDBRANCH   7  49
BRANCH  10  51
HETATM   51  O   UNK N   1      82.556  26.329  -1.418  0.00  0.00    -0.361 OA
HETATM   52  H   UNK N   1      82.578  25.948  -2.307  0.00  0.00     0.217 HD
ENDBRANCH  10  51
TORSDOF 13
ENDMDL
MODEL 7
REMARK VINA RESULT:      -5.9      8.514     12.123
REMARK  13 active torsions:
REMARK  status: ('A' for Active; 'I' for Inactive)
REMARK    1  A    between atoms: O_3  and  C_14 
REMARK    2  A    between atoms: O_4  and  C_20 
REMARK    3  A    between atoms: O_5  and  C_24 
REMARK    4  A    between atoms: O_6  and  C_27 
REMARK    5  A    between atoms: O_7  and  C_26 
REMARK    6  A    between atoms: O_8  and  C_33 
REMARK    7  A    between atoms: O_9  and  C_37 
REMARK    8  A    between atoms: O_10  and  C_39 
REMARK    9  A    between atoms: O_11  and  C_40 
REMARK   10  A    between atoms: O_12  and  C_42 
REMARK   11  A    between atoms: C_13  and  C_15 
REMARK   12  A    between atoms: C_16  and  C_25 
REMARK   13  A    between atoms: C_21  and  C_29 
ROOT
HETATM    1  O   UNK N   1      79.153  30.568  -6.726  0.00  0.00    -0.338 OA
HETATM    2  C   UNK N   1      78.701  32.399  -4.561  0.00  0.00     0.094 C 
HETATM    3  C   UNK N   1      78.360  30.883  -4.491  0.00  0.00     0.165 C 
HETATM    4  C   UNK N   1      79.292  30.098  -5.428  0.00  0.00     0.191 C 
HETATM    5  C   UNK N   1      78.965  32.858  -5.992  0.00  0.00     0.020 A 
HETATM    6  C   UNK N   1      79.161  31.896  -7.014  0.00  0.00     0.082 A 
HETATM    7  C   UNK N   1      79.048  34.228  -6.304  0.00  0.00     0.078 A 
HETATM    8  C   UNK N   1      79.386  32.311  -8.330  0.00  0.00     0.074 A 
HETATM    9  C   UNK N   1      79.295  34.628  -7.627  0.00  0.00     0.073 A 
HETATM   10  C   UNK N   1      79.457  33.672  -8.639  0.00  0.00     0.071 A 
ENDROOT
BRANCH   2  11
HETATM   11  C   UNK N   1      79.833  32.777  -3.593  0.00  0.00     0.020 A 
HETATM   12  C   UNK N   1      79.618  33.832  -2.671  0.00  0.00     0.088 A 
HETATM   13  O   UNK N   1      78.410  34.458  -2.624  0.00  0.00    -0.337 OA
HETATM   14  C   UNK N   1      80.643  34.225  -1.781  0.00  0.00     0.012 A 
HETATM   15  C   UNK N   1      78.030  35.255  -1.553  0.00  0.00     0.191 C 
HETATM   16  C   UNK N   1      79.177  36.213  -1.210  0.00  0.00     0.156 C 
HETATM   17  C   UNK N   1      80.408  35.376  -0.820  0.00  0.00     0.079 C 
HETATM   18  C   UNK N   1      81.863  33.538  -1.769  0.00  0.00     0.077 A 
HETATM   19  C   UNK N   1      82.073  32.482  -2.660  0.00  0.00     0.074 A 
HETATM   20  C   UNK N   1      81.081  32.099  -3.570  0.00  0.00     0.078 A 
BRANCH  15  21
HETATM   21  C   UNK N   1      76.753  36.001  -1.857  0.00  0.00    -0.024 A 
HETATM   22  C   UNK N   1      75.926  35.617  -2.927  0.00  0.00     0.049 A 
HETATM   23  C   UNK N   1      74.750  36.330  -3.206  0.00  0.00     0.099 A 
HETATM   24  C   UNK N   1      74.402  37.438  -2.420  0.00  0.00     0.098 A 
HETATM   25  C   UNK N   1      75.229  37.825  -1.357  0.00  0.00     0.040 A 
HETATM   26  C   UNK N   1      76.395  37.111  -1.075  0.00  0.00     0.013 A 
BRANCH  23  27
HETATM   27  O   UNK N   1      73.953  35.958  -4.229  0.00  0.00    -0.358 OA
HETATM   28  H   UNK N   1      73.067  35.598  -4.080  0.00  0.00     0.218 HD
ENDBRANCH  23  27
BRANCH  24  29
HETATM   29  O   UNK N   1      73.274  38.126  -2.694  0.00  0.00    -0.358 OA
HETATM   30  H   UNK N   1      73.039  38.377  -3.599  0.00  0.00     0.218 HD
ENDBRANCH  24  29
ENDBRANCH  15  21
BRANCH  16  31
HETATM   31  O   UNK N   1      79.494  37.002  -2.331  0.00  0.00    -0.392 OA
HETATM   32  H   UNK N   1      80.020  36.429  -2.948  0.00  0.00     0.210 HD
ENDBRANCH  16  31
BRANCH  18  33
HETATM   33  O   UNK N   1      82.834  33.898  -0.903  0.00  0.00    -0.360 OA
HETATM   34  H   UNK N   1      83.380  33.243  -0.446  0.00  0.00     0.217 HD
ENDBRANCH  18  33
BRANCH  20  35
HETATM   35  O   UNK N   1      81.327  31.076  -4.417  0.00  0.00    -0.360 OA
HETATM   36  H   UNK N   1      80.895  30.216  -4.323  0.00  0.00     0.217 HD
ENDBRANCH  20  35
ENDBRANCH   2  11
BRANCH   3  37
HETATM   37  O   UNK N   1      77.012  30.652  -4.832  0.00  0.00    -0.392 OA
HETATM   38  H   UNK N   1      76.435  30.969  -4.090  0.00  0.00     0.210 HD
ENDBRANCH   3  37
BRANCH   4  39
HETATM   39  C   UNK N   1      79.034  28.613  -5.355  0.00  0.00    -0.024 A 
HETATM   40  C   UNK N   1      78.612  27.934  -6.507  0.00  0.00     0.049 A 
HETATM   41  C   UNK N   1      78.385  26.552  -6.477  0.00  0.00     0.099 A 
HETATM   42  C   UNK N   1      78.574  25.840  -5.278  0.00  0.00     0.098 A 
HETATM   43  C   UNK N   1      78.992  26.517  -4.126  0.00  0.00     0.040 A 
HETATM   44  C   UNK N   1      79.227  27.895  -4.162  0.00  0.00     0.013 A 
BRANCH  41  45
HETATM   45  O   UNK N   1      77.993  25.906  -7.594  0.00  0.00    -0.358 OA
HETATM   46  H   UNK N   1      77.401  26.322  -8.239  0.00  0.00     0.218 HD
ENDBRANCH  41  45
BRANCH  42  47
HETATM   47  O   UNK N   1      78.361  24.508  -5.219  0.00  0.00    -0.358 OA
HETATM   48  H   UNK N   1      79.087  23.873  -5.149  0.00  0.00     0.218 HD
ENDBRANCH  42  47
ENDBRANCH   4  39
BRANCH   7  49
HETATM   49  O   UNK N   1      78.893  35.153  -5.334  0.00  0.00    -0.360 OA
HETATM   50  H   UNK N   1      78.175  35.800  -5.356  0.00  0.00     0.217 HD
ENDBRANCH   7  49
BRANCH  10  51
HETATM   51  O   UNK N   1      79.693  34.054  -9.912  0.00  0.00    -0.361 OA
HETATM   52  H   UNK N   1      79.388  33.528 -10.665  0.00  0.00     0.217 HD
ENDBRANCH  10  51
TORSDOF 13
ENDMDL
MODEL 8
REMARK VINA RESULT:      -5.9      5.007      9.271
REMARK  13 active torsions:
REMARK  status: ('A' for Active; 'I' for Inactive)
REMARK    1  A    between atoms: O_3  and  C_14 
REMARK    2  A    between atoms: O_4  and  C_20 
REMARK    3  A    between atoms: O_5  and  C_24 
REMARK    4  A    between atoms: O_6  and  C_27 
REMARK    5  A    between atoms: O_7  and  C_26 
REMARK    6  A    between atoms: O_8  and  C_33 
REMARK    7  A    between atoms: O_9  and  C_37 
REMARK    8  A    between atoms: O_10  and  C_39 
REMARK    9  A    between atoms: O_11  and  C_40 
REMARK   10  A    between atoms: O_12  and  C_42 
REMARK   11  A    between atoms: C_13  and  C_15 
REMARK   12  A    between atoms: C_16  and  C_25 
REMARK   13  A    between atoms: C_21  and  C_29 
ROOT
HETATM    1  O   UNK N   1      82.857  32.608   3.000  0.00  0.00    -0.338 OA
HETATM    2  C   UNK N   1      81.123  34.503   1.718  0.00  0.00     0.094 C 
HETATM    3  C   UNK N   1      80.734  33.020   1.977  0.00  0.00     0.165 C 
HETATM    4  C   UNK N   1      81.489  32.493   3.207  0.00  0.00     0.191 C 
HETATM    5  C   UNK N   1      82.619  34.739   1.896  0.00  0.00     0.020 A 
HETATM    6  C   UNK N   1      83.417  33.750   2.523  0.00  0.00     0.082 A 
HETATM    7  C   UNK N   1      83.213  35.944   1.473  0.00  0.00     0.078 A 
HETATM    8  C   UNK N   1      84.792  33.954   2.674  0.00  0.00     0.074 A 
HETATM    9  C   UNK N   1      84.591  36.142   1.650  0.00  0.00     0.073 A 
HETATM   10  C   UNK N   1      85.381  35.146   2.243  0.00  0.00     0.071 A 
ENDROOT
BRANCH   2  11
HETATM   11  C   UNK N   1      80.262  35.474   2.541  0.00  0.00     0.020 A 
HETATM   12  C   UNK N   1      79.077  35.995   1.962  0.00  0.00     0.088 A 
HETATM   13  O   UNK N   1      78.698  35.596   0.716  0.00  0.00    -0.337 OA
HETATM   14  C   UNK N   1      78.271  36.908   2.677  0.00  0.00     0.012 A 
HETATM   15  C   UNK N   1      77.414  35.805   0.231  0.00  0.00     0.191 C 
HETATM   16  C   UNK N   1      77.003  37.255   0.510  0.00  0.00     0.156 C 
HETATM   17  C   UNK N   1      77.022  37.480   2.033  0.00  0.00     0.079 C 
HETATM   18  C   UNK N   1      78.612  37.265   3.988  0.00  0.00     0.077 A 
HETATM   19  C   UNK N   1      79.766  36.739   4.573  0.00  0.00     0.074 A 
HETATM   20  C   UNK N   1      80.593  35.856   3.868  0.00  0.00     0.078 A 
BRANCH  15  21
HETATM   21  C   UNK N   1      77.329  35.476  -1.240  0.00  0.00    -0.024 A 
HETATM   22  C   UNK N   1      76.138  35.672  -1.960  0.00  0.00     0.049 A 
HETATM   23  C   UNK N   1      76.071  35.347  -3.324  0.00  0.00     0.099 A 
HETATM   24  C   UNK N   1      77.196  34.815  -3.971  0.00  0.00     0.098 A 
HETATM   25  C   UNK N   1      78.382  34.613  -3.253  0.00  0.00     0.040 A 
HETATM   26  C   UNK N   1      78.450  34.943  -1.898  0.00  0.00     0.013 A 
BRANCH  23  27
HETATM   27  O   UNK N   1      74.930  35.542  -4.016  0.00  0.00    -0.358 OA
HETATM   28  H   UNK N   1      74.717  35.020  -4.804  0.00  0.00     0.218 HD
ENDBRANCH  23  27
BRANCH  24  29
HETATM   29  O   UNK N   1      77.128  34.498  -5.281  0.00  0.00    -0.358 OA
HETATM   30  H   UNK N   1      77.290  33.596  -5.594  0.00  0.00     0.218 HD
ENDBRANCH  24  29
ENDBRANCH  15  21
BRANCH  16  31
HETATM   31  O   UNK N   1      77.915  38.137  -0.096  0.00  0.00    -0.392 OA
HETATM   32  H   UNK N   1      78.383  37.626  -0.807  0.00  0.00     0.210 HD
ENDBRANCH  16  31
BRANCH  18  33
HETATM   33  O   UNK N   1      77.830  38.121   4.680  0.00  0.00    -0.360 OA
HETATM   34  H   UNK N   1      77.465  37.892   5.548  0.00  0.00     0.217 HD
ENDBRANCH  18  33
BRANCH  20  35
HETATM   35  O   UNK N   1      81.702  35.374   4.469  0.00  0.00    -0.360 OA
HETATM   36  H   UNK N   1      82.250  34.689   4.062  0.00  0.00     0.217 HD
ENDBRANCH  20  35
ENDBRANCH   2  11
BRANCH   3  37
HETATM   37  O   UNK N   1      81.012  32.220   0.849  0.00  0.00    -0.392 OA
HETATM   38  H   UNK N   1      80.338  31.495   0.798  0.00  0.00     0.210 HD
ENDBRANCH   3  37
BRANCH   4  39
HETATM   39  C   UNK N   1      81.105  31.070   3.531  0.00  0.00    -0.024 A 
HETATM   40  C   UNK N   1      79.756  30.758   3.753  0.00  0.00     0.049 A 
HETATM   41  C   UNK N   1      79.365  29.443   4.033  0.00  0.00     0.099 A 
HETATM   42  C   UNK N   1      80.336  28.427   4.103  0.00  0.00     0.098 A 
HETATM   43  C   UNK N   1      81.683  28.737   3.885  0.00  0.00     0.040 A 
HETATM   44  C   UNK N   1      82.069  30.049   3.594  0.00  0.00     0.013 A 
BRANCH  41  45
HETATM   45  O   UNK N   1      78.063  29.152   4.232  0.00  0.00    -0.358 OA
HETATM   46  H   UNK N   1      77.404  29.847   4.378  0.00  0.00     0.218 HD
ENDBRANCH  41  45
BRANCH  42  47
HETATM   47  O   UNK N   1      79.989  27.150   4.373  0.00  0.00    -0.358 OA
HETATM   48  H   UNK N   1      79.849  26.835   5.276  0.00  0.00     0.218 HD
ENDBRANCH  42  47
ENDBRANCH   4  39
BRANCH   7  49
HETATM   49  O   UNK N   1      82.458  36.906   0.902  0.00  0.00    -0.360 OA
HETATM   50  H   UNK N   1      82.734  37.833   0.894  0.00  0.00     0.217 HD
ENDBRANCH   7  49
BRANCH  10  51
HETATM   51  O   UNK N   1      86.706  35.333   2.413  0.00  0.00    -0.361 OA
HETATM   52  H   UNK N   1      87.095  35.441   3.293  0.00  0.00     0.217 HD
ENDBRANCH  10  51
TORSDOF 13
ENDMDL
MODEL 9
REMARK VINA RESULT:      -5.9      2.978      5.241
REMARK  13 active torsions:
REMARK  status: ('A' for Active; 'I' for Inactive)
REMARK    1  A    between atoms: O_3  and  C_14 
REMARK    2  A    between atoms: O_4  and  C_20 
REMARK    3  A    between atoms: O_5  and  C_24 
REMARK    4  A    between atoms: O_6  and  C_27 
REMARK    5  A    between atoms: O_7  and  C_26 
REMARK    6  A    between atoms: O_8  and  C_33 
REMARK    7  A    between atoms: O_9  and  C_37 
REMARK    8  A    between atoms: O_10  and  C_39 
REMARK    9  A    between atoms: O_11  and  C_40 
REMARK   10  A    between atoms: O_12  and  C_42 
REMARK   11  A    between atoms: C_13  and  C_15 
REMARK   12  A    between atoms: C_16  and  C_25 
REMARK   13  A    between atoms: C_21  and  C_29 
ROOT
HETATM    1  O   UNK N   1      83.458  23.812   2.586  0.00  0.00    -0.338 OA
HETATM    2  C   UNK N   1      81.457  25.589   1.546  0.00  0.00     0.094 C 
HETATM    3  C   UNK N   1      81.214  24.074   1.800  0.00  0.00     0.165 C 
HETATM    4  C   UNK N   1      82.133  23.584   2.929  0.00  0.00     0.191 C 
HETATM    5  C   UNK N   1      82.941  25.941   1.576  0.00  0.00     0.020 A 
HETATM    6  C   UNK N   1      83.875  25.006   2.087  0.00  0.00     0.082 A 
HETATM    7  C   UNK N   1      83.392  27.198   1.129  0.00  0.00     0.078 A 
HETATM    8  C   UNK N   1      85.238  25.316   2.100  0.00  0.00     0.074 A 
HETATM    9  C   UNK N   1      84.761  27.502   1.168  0.00  0.00     0.073 A 
HETATM   10  C   UNK N   1      85.684  26.560   1.646  0.00  0.00     0.071 A 
ENDROOT
BRANCH   2  11
HETATM   11  C   UNK N   1      80.615  26.470   2.482  0.00  0.00     0.020 A 
HETATM   12  C   UNK N   1      81.174  26.883   3.717  0.00  0.00     0.088 A 
HETATM   13  O   UNK N   1      82.452  26.536   4.034  0.00  0.00    -0.337 OA
HETATM   14  C   UNK N   1      80.423  27.674   4.615  0.00  0.00     0.012 A 
HETATM   15  C   UNK N   1      83.159  27.164   5.050  0.00  0.00     0.191 C 
HETATM   16  C   UNK N   1      82.272  27.252   6.298  0.00  0.00     0.156 C 
HETATM   17  C   UNK N   1      81.024  28.083   5.947  0.00  0.00     0.079 C 
HETATM   18  C   UNK N   1      79.135  28.100   4.265  0.00  0.00     0.077 A 
HETATM   19  C   UNK N   1      78.586  27.715   3.040  0.00  0.00     0.074 A 
HETATM   20  C   UNK N   1      79.304  26.906   2.151  0.00  0.00     0.078 A 
BRANCH  15  21
HETATM   21  C   UNK N   1      84.453  26.441   5.338  0.00  0.00    -0.024 A 
HETATM   22  C   UNK N   1      84.475  25.053   5.559  0.00  0.00     0.049 A 
HETATM   23  C   UNK N   1      85.684  24.398   5.841  0.00  0.00     0.099 A 
HETATM   24  C   UNK N   1      86.876  25.133   5.911  0.00  0.00     0.098 A 
HETATM   25  C   UNK N   1      86.855  26.518   5.696  0.00  0.00     0.040 A 
HETATM   26  C   UNK N   1      85.653  27.168   5.409  0.00  0.00     0.013 A 
BRANCH  23  27
HETATM   27  O   UNK N   1      85.705  23.065   6.047  0.00  0.00    -0.358 OA
HETATM   28  H   UNK N   1      85.453  22.438   5.355  0.00  0.00     0.218 HD
ENDBRANCH  23  27
BRANCH  24  29
HETATM   29  O   UNK N   1      88.037  24.502   6.187  0.00  0.00    -0.358 OA
HETATM   30  H   UNK N   1      88.064  23.555   6.386  0.00  0.00     0.218 HD
ENDBRANCH  24  29
ENDBRANCH  15  21
BRANCH  16  31
HETATM   31  O   UNK N   1      81.870  25.964   6.692  0.00  0.00    -0.392 OA
HETATM   32  H   UNK N   1      81.695  26.001   7.668  0.00  0.00     0.210 HD
ENDBRANCH  16  31
BRANCH  18  33
HETATM   33  O   UNK N   1      78.426  28.874   5.113  0.00  0.00    -0.360 OA
HETATM   34  H   UNK N   1      77.594  28.573   5.507  0.00  0.00     0.217 HD
ENDBRANCH  18  33
BRANCH  20  35
HETATM   35  O   UNK N   1      78.735  26.553   0.978  0.00  0.00    -0.360 OA
HETATM   36  H   UNK N   1      77.886  26.091   0.938  0.00  0.00     0.217 HD
ENDBRANCH  20  35
ENDBRANCH   2  11
BRANCH   3  37
HETATM   37  O   UNK N   1      81.432  23.323   0.627  0.00  0.00    -0.392 OA
HETATM   38  H   UNK N   1      80.992  22.441   0.726  0.00  0.00     0.210 HD
ENDBRANCH   3  37
BRANCH   4  39
HETATM   39  C   UNK N   1      81.897  22.128   3.249  0.00  0.00    -0.024 A 
HETATM   40  C   UNK N   1      80.609  21.707   3.612  0.00  0.00     0.049 A 
HETATM   41  C   UNK N   1      80.354  20.359   3.893  0.00  0.00     0.099 A 
HETATM   42  C   UNK N   1      81.400  19.420   3.820  0.00  0.00     0.098 A 
HETATM   43  C   UNK N   1      82.686  19.840   3.462  0.00  0.00     0.040 A 
HETATM   44  C   UNK N   1      82.936  21.184   3.171  0.00  0.00     0.013 A 
BRANCH  41  45
HETATM   45  O   UNK N   1      79.109  19.962   4.227  0.00  0.00    -0.358 OA
HETATM   46  H   UNK N   1      78.688  20.249   5.051  0.00  0.00     0.218 HD
ENDBRANCH  41  45
BRANCH  42  47
HETATM   47  O   UNK N   1      81.183  18.114   4.088  0.00  0.00    -0.358 OA
HETATM   48  H   UNK N   1      80.322  17.784   4.379  0.00  0.00     0.218 HD
ENDBRANCH  42  47
ENDBRANCH   4  39
BRANCH   7  49
HETATM   49  O   UNK N   1      82.508  28.108   0.668  0.00  0.00    -0.360 OA
HETATM   50  H   UNK N   1      81.950  28.625   1.265  0.00  0.00     0.217 HD
ENDBRANCH   7  49
BRANCH  10  51
HETATM   51  O   UNK N   1      87.001  26.850   1.684  0.00  0.00    -0.361 OA
HETATM   52  H   UNK N   1      87.331  27.743   1.509  0.00  0.00     0.217 HD
ENDBRANCH  10  51
TORSDOF 13
ENDMDL
