MODEL 1
REMARK VINA RESULT:      -4.3      0.000      0.000
REMARK  3 active torsions:
REMARK  status: ('A' for Active; 'I' for Inactive)
REMARK    1  A    between atoms: O_1  and  C_7 
REMARK    2  A    between atoms: O_2  and  C_10 
REMARK    3  A    between atoms: C_4  and  C_10 
ROOT
HETATM    1  C   UNK N   1      76.911  30.701  -6.040  0.00  0.00     0.037 A 
HETATM    2  C   UNK N   1      76.942  29.832  -7.147  0.00  0.00     0.021 A 
HETATM    3  C   UNK N   1      77.089  30.173  -4.750  0.00  0.00     0.021 A 
HETATM    4  C   UNK N   1      77.324  27.942  -5.671  0.00  0.00     0.065 A 
HETATM    5  C   UNK N   1      77.148  28.461  -6.962  0.00  0.00     0.037 A 
HETATM    6  C   UNK N   1      77.294  28.802  -4.569  0.00  0.00     0.037 A 
ENDROOT
BRANCH   1   7
HETATM    7  C   UNK N   1      76.694  32.158  -6.224  0.00  0.00     0.176 C 
HETATM    8  O   UNK N   1      77.023  32.706  -7.266  0.00  0.00    -0.646 OA
BRANCH   7   9
HETATM    9  O   UNK N   1      76.129  32.887  -5.236  0.00  0.00    -0.773 OA
HETATM   10  H   UNK N   1      76.300  32.691  -4.304  0.00  0.00     0.167 HD
ENDBRANCH   7   9
ENDBRANCH   1   7
BRANCH   4  11
HETATM   11  O   UNK N   1      77.523  26.622  -5.480  0.00  0.00    -0.361 OA
HETATM   12  H   UNK N   1      78.411  26.248  -5.393  0.00  0.00     0.217 HD
ENDBRANCH   4  11
TORSDOF 3
ENDMDL
MODEL 2
REMARK VINA RESULT:      -4.1     35.772     36.809
REMARK  3 active torsions:
REMARK  status: ('A' for Active; 'I' for Inactive)
REMARK    1  A    between atoms: O_1  and  C_7 
REMARK    2  A    between atoms: O_2  and  C_10 
REMARK    3  A    between atoms: C_4  and  C_10 
ROOT
HETATM    1  C   UNK N   1      49.568  14.260  13.139  0.00  0.00     0.037 A 
HETATM    2  C   UNK N   1      49.184  12.917  13.316  0.00  0.00     0.021 A 
HETATM    3  C   UNK N   1      50.740  14.547  12.417  0.00  0.00     0.021 A 
HETATM    4  C   UNK N   1      51.126  12.180  12.059  0.00  0.00     0.065 A 
HETATM    5  C   UNK N   1      49.959  11.884  12.779  0.00  0.00     0.037 A 
HETATM    6  C   UNK N   1      51.512  13.512  11.881  0.00  0.00     0.037 A 
ENDROOT
BRANCH   1   7
HETATM    7  C   UNK N   1      48.754  15.364  13.704  0.00  0.00     0.176 C 
HETATM    8  O   UNK N   1      49.178  16.029  14.639  0.00  0.00    -0.646 OA
BRANCH   7   9
HETATM    9  O   UNK N   1      47.538  15.642  13.186  0.00  0.00    -0.773 OA
HETATM   10  H   UNK N   1      46.764  15.102  13.401  0.00  0.00     0.167 HD
ENDBRANCH   7   9
ENDBRANCH   1   7
BRANCH   4  11
HETATM   11  O   UNK N   1      51.882  11.192  11.536  0.00  0.00    -0.361 OA
HETATM   12  H   UNK N   1      52.256  11.254  10.646  0.00  0.00     0.217 HD
ENDBRANCH   4  11
TORSDOF 3
ENDMDL
MODEL 3
REMARK VINA RESULT:      -3.9     35.943     37.057
REMARK  3 active torsions:
REMARK  status: ('A' for Active; 'I' for Inactive)
REMARK    1  A    between atoms: O_1  and  C_7 
REMARK    2  A    between atoms: O_2  and  C_10 
REMARK    3  A    between atoms: C_4  and  C_10 
ROOT
HETATM    1  C   UNK N   1      49.224  16.168  13.782  0.00  0.00     0.037 A 
HETATM    2  C   UNK N   1      47.947  16.291  14.362  0.00  0.00     0.021 A 
HETATM    3  C   UNK N   1      49.972  17.330  13.522  0.00  0.00     0.021 A 
HETATM    4  C   UNK N   1      48.185  18.707  14.410  0.00  0.00     0.065 A 
HETATM    5  C   UNK N   1      47.432  17.554  14.674  0.00  0.00     0.037 A 
HETATM    6  C   UNK N   1      49.454  18.590  13.835  0.00  0.00     0.037 A 
ENDROOT
BRANCH   1   7
HETATM    7  C   UNK N   1      49.781  14.834  13.447  0.00  0.00     0.176 C 
HETATM    8  O   UNK N   1      49.078  13.836  13.513  0.00  0.00    -0.646 OA
BRANCH   7   9
HETATM    9  O   UNK N   1      51.072  14.717  13.064  0.00  0.00    -0.773 OA
HETATM   10  H   UNK N   1      51.717  14.243  13.608  0.00  0.00     0.167 HD
ENDBRANCH   7   9
ENDBRANCH   1   7
BRANCH   4  11
HETATM   11  O   UNK N   1      47.699  19.930  14.706  0.00  0.00    -0.361 OA
HETATM   12  H   UNK N   1      47.013  20.350  14.169  0.00  0.00     0.217 HD
ENDBRANCH   4  11
TORSDOF 3
ENDMDL
MODEL 4
REMARK VINA RESULT:      -3.9      1.148      4.147
REMARK  3 active torsions:
REMARK  status: ('A' for Active; 'I' for Inactive)
REMARK    1  A    between atoms: O_1  and  C_7 
REMARK    2  A    between atoms: O_2  and  C_10 
REMARK    3  A    between atoms: C_4  and  C_10 
ROOT
HETATM    1  C   UNK N   1      77.304  28.635  -5.185  0.00  0.00     0.037 A 
HETATM    2  C   UNK N   1      77.296  28.557  -6.590  0.00  0.00     0.021 A 
HETATM    3  C   UNK N   1      77.131  29.885  -4.567  0.00  0.00     0.021 A 
HETATM    4  C   UNK N   1      76.945  30.956  -6.734  0.00  0.00     0.065 A 
HETATM    5  C   UNK N   1      77.117  29.712  -7.359  0.00  0.00     0.037 A 
HETATM    6  C   UNK N   1      76.953  31.037  -5.339  0.00  0.00     0.037 A 
ENDROOT
BRANCH   1   7
HETATM    7  C   UNK N   1      77.493  27.417  -4.358  0.00  0.00     0.176 C 
HETATM    8  O   UNK N   1      78.573  27.186  -3.834  0.00  0.00    -0.646 OA
BRANCH   7   9
HETATM    9  O   UNK N   1      76.467  26.556  -4.178  0.00  0.00    -0.773 OA
HETATM   10  H   UNK N   1      76.313  25.822  -4.790  0.00  0.00     0.167 HD
ENDBRANCH   7   9
ENDBRANCH   1   7
BRANCH   4  11
HETATM   11  O   UNK N   1      76.772  32.077  -7.465  0.00  0.00    -0.361 OA
HETATM   12  H   UNK N   1      76.313  32.850  -7.110  0.00  0.00     0.217 HD
ENDBRANCH   4  11
TORSDOF 3
ENDMDL
MODEL 5
REMARK VINA RESULT:      -3.9      9.418     10.357
REMARK  3 active torsions:
REMARK  status: ('A' for Active; 'I' for Inactive)
REMARK    1  A    between atoms: O_1  and  C_7 
REMARK    2  A    between atoms: O_2  and  C_10 
REMARK    3  A    between atoms: C_4  and  C_10 
ROOT
HETATM    1  C   UNK N   1      80.389  30.438   3.704  0.00  0.00     0.037 A 
HETATM    2  C   UNK N   1      80.536  29.292   4.508  0.00  0.00     0.021 A 
HETATM    3  C   UNK N   1      79.237  30.574   2.909  0.00  0.00     0.021 A 
HETATM    4  C   UNK N   1      78.401  28.447   3.718  0.00  0.00     0.065 A 
HETATM    5  C   UNK N   1      79.546  28.303   4.514  0.00  0.00     0.037 A 
HETATM    6  C   UNK N   1      78.251  29.583   2.918  0.00  0.00     0.037 A 
ENDROOT
BRANCH   1   7
HETATM    7  C   UNK N   1      81.431  31.494   3.689  0.00  0.00     0.176 C 
HETATM    8  O   UNK N   1      81.160  32.626   3.311  0.00  0.00    -0.646 OA
BRANCH   7   9
HETATM    9  O   UNK N   1      82.688  31.210   4.095  0.00  0.00    -0.773 OA
HETATM   10  H   UNK N   1      83.256  30.610   3.592  0.00  0.00     0.167 HD
ENDBRANCH   7   9
ENDBRANCH   1   7
BRANCH   4  11
HETATM   11  O   UNK N   1      77.440  27.500   3.715  0.00  0.00    -0.361 OA
HETATM   12  H   UNK N   1      77.450  26.766   3.085  0.00  0.00     0.217 HD
ENDBRANCH   4  11
TORSDOF 3
ENDMDL
MODEL 6
REMARK VINA RESULT:      -3.9     19.470     19.869
REMARK  3 active torsions:
REMARK  status: ('A' for Active; 'I' for Inactive)
REMARK    1  A    between atoms: O_1  and  C_7 
REMARK    2  A    between atoms: O_2  and  C_10 
REMARK    3  A    between atoms: C_4  and  C_10 
ROOT
HETATM    1  C   UNK N   1      65.974  44.740   0.783  0.00  0.00     0.037 A 
HETATM    2  C   UNK N   1      67.164  45.171   1.399  0.00  0.00     0.021 A 
HETATM    3  C   UNK N   1      65.003  44.080   1.557  0.00  0.00     0.021 A 
HETATM    4  C   UNK N   1      66.401  44.284   3.527  0.00  0.00     0.065 A 
HETATM    5  C   UNK N   1      67.375  44.944   2.763  0.00  0.00     0.037 A 
HETATM    6  C   UNK N   1      65.218  43.855   2.920  0.00  0.00     0.037 A 
ENDROOT
BRANCH   1   7
HETATM    7  C   UNK N   1      65.738  44.975  -0.663  0.00  0.00     0.176 C 
HETATM    8  O   UNK N   1      66.612  45.471  -1.359  0.00  0.00    -0.646 OA
BRANCH   7   9
HETATM    9  O   UNK N   1      64.553  44.640  -1.218  0.00  0.00    -0.773 OA
HETATM   10  H   UNK N   1      64.504  44.052  -1.985  0.00  0.00     0.167 HD
ENDBRANCH   7   9
ENDBRANCH   1   7
BRANCH   4  11
HETATM   11  O   UNK N   1      66.593  44.059   4.843  0.00  0.00    -0.361 OA
HETATM   12  H   UNK N   1      66.943  44.743   5.431  0.00  0.00     0.217 HD
ENDBRANCH   4  11
TORSDOF 3
ENDMDL
MODEL 7
REMARK VINA RESULT:      -3.8     19.561     20.062
REMARK  3 active torsions:
REMARK  status: ('A' for Active; 'I' for Inactive)
REMARK    1  A    between atoms: O_1  and  C_7 
REMARK    2  A    between atoms: O_2  and  C_10 
REMARK    3  A    between atoms: C_4  and  C_10 
ROOT
HETATM    1  C   UNK N   1      66.614  44.564   2.696  0.00  0.00     0.037 A 
HETATM    2  C   UNK N   1      67.292  45.016   1.549  0.00  0.00     0.021 A 
HETATM    3  C   UNK N   1      65.272  44.161   2.583  0.00  0.00     0.021 A 
HETATM    4  C   UNK N   1      65.298  44.659   0.211  0.00  0.00     0.065 A 
HETATM    5  C   UNK N   1      66.637  45.063   0.314  0.00  0.00     0.037 A 
HETATM    6  C   UNK N   1      64.620  44.209   1.347  0.00  0.00     0.037 A 
ENDROOT
BRANCH   1   7
HETATM    7  C   UNK N   1      67.298  44.510   4.012  0.00  0.00     0.176 C 
HETATM    8  O   UNK N   1      68.471  44.841   4.114  0.00  0.00    -0.646 OA
BRANCH   7   9
HETATM    9  O   UNK N   1      66.625  44.094   5.108  0.00  0.00    -0.773 OA
HETATM   10  H   UNK N   1      65.695  44.320   5.243  0.00  0.00     0.167 HD
ENDBRANCH   7   9
ENDBRANCH   1   7
BRANCH   4  11
HETATM   11  O   UNK N   1      64.656  44.699  -0.975  0.00  0.00    -0.361 OA
HETATM   12  H   UNK N   1      63.976  45.361  -1.164  0.00  0.00     0.217 HD
ENDBRANCH   4  11
TORSDOF 3
ENDMDL
MODEL 8
REMARK VINA RESULT:      -3.7     19.176     19.935
REMARK  3 active torsions:
REMARK  status: ('A' for Active; 'I' for Inactive)
REMARK    1  A    between atoms: O_1  and  C_7 
REMARK    2  A    between atoms: O_2  and  C_10 
REMARK    3  A    between atoms: C_4  and  C_10 
ROOT
HETATM    1  C   UNK N   1      66.014  44.512   1.877  0.00  0.00     0.037 A 
HETATM    2  C   UNK N   1      67.289  45.044   1.610  0.00  0.00     0.021 A 
HETATM    3  C   UNK N   1      65.092  44.381   0.823  0.00  0.00     0.021 A 
HETATM    4  C   UNK N   1      66.707  45.302  -0.734  0.00  0.00     0.065 A 
HETATM    5  C   UNK N   1      67.633  45.436   0.311  0.00  0.00     0.037 A 
HETATM    6  C   UNK N   1      65.439  44.774  -0.473  0.00  0.00     0.037 A 
ENDROOT
BRANCH   1   7
HETATM    7  C   UNK N   1      65.638  44.092   3.250  0.00  0.00     0.176 C 
HETATM    8  O   UNK N   1      65.698  44.887   4.178  0.00  0.00    -0.646 OA
BRANCH   7   9
HETATM    9  O   UNK N   1      65.224  42.827   3.481  0.00  0.00    -0.773 OA
HETATM   10  H   UNK N   1      65.164  42.178   2.766  0.00  0.00     0.167 HD
ENDBRANCH   7   9
ENDBRANCH   1   7
BRANCH   4  11
HETATM   11  O   UNK N   1      67.026  45.676  -1.990  0.00  0.00    -0.361 OA
HETATM   12  H   UNK N   1      67.886  45.467  -2.381  0.00  0.00     0.217 HD
ENDBRANCH   4  11
TORSDOF 3
ENDMDL
MODEL 9
REMARK VINA RESULT:      -3.7     36.529     37.656
REMARK  3 active torsions:
REMARK  status: ('A' for Active; 'I' for Inactive)
REMARK    1  A    between atoms: O_1  and  C_7 
REMARK    2  A    between atoms: O_2  and  C_10 
REMARK    3  A    between atoms: C_4  and  C_10 
ROOT
HETATM    1  C   UNK N   1      48.768  15.595  14.357  0.00  0.00     0.037 A 
HETATM    2  C   UNK N   1      48.826  15.582  15.763  0.00  0.00     0.021 A 
HETATM    3  C   UNK N   1      49.241  16.722  13.663  0.00  0.00     0.021 A 
HETATM    4  C   UNK N   1      49.817  17.799  15.758  0.00  0.00     0.065 A 
HETATM    5  C   UNK N   1      49.347  16.678  16.459  0.00  0.00     0.037 A 
HETATM    6  C   UNK N   1      49.762  17.816  14.361  0.00  0.00     0.037 A 
ENDROOT
BRANCH   1   7
HETATM    7  C   UNK N   1      48.217  14.438  13.608  0.00  0.00     0.176 C 
HETATM    8  O   UNK N   1      48.698  13.323  13.752  0.00  0.00    -0.646 OA
BRANCH   7   9
HETATM    9  O   UNK N   1      47.178  14.613  12.763  0.00  0.00    -0.773 OA
HETATM   10  H   UNK N   1      46.905  13.916  12.150  0.00  0.00     0.167 HD
ENDBRANCH   7   9
ENDBRANCH   1   7
BRANCH   4  11
HETATM   11  O   UNK N   1      50.322  18.862  16.417  0.00  0.00    -0.361 OA
HETATM   12  H   UNK N   1      50.956  18.759  17.141  0.00  0.00     0.217 HD
ENDBRANCH   4  11
TORSDOF 3
ENDMDL
