MODEL 1
REMARK VINA RESULT:      -5.4      0.000      0.000
REMARK  6 active torsions:
REMARK  status: ('A' for Active; 'I' for Inactive)
REMARK    1  A    between atoms: O_1  and  C_22 
REMARK    2  A    between atoms: C_6  and  C_13 
REMARK    3  A    between atoms: C_13  and  C_21 
REMARK    4  A    between atoms: C_21  and  C_24 
REMARK    5  A    between atoms: C_24  and  C_25 
REMARK    6  A    between atoms: C_25  and  C_26 
ROOT
HETATM    1  C   UNK N   1      77.604  39.230   2.350  0.00  0.00    -0.036 C 
HETATM    2  C   UNK N   1      77.439  37.800   2.908  0.00  0.00    -0.001 C 
HETATM    3  C   UNK N   1      78.196  37.576   4.238  0.00  0.00    -0.001 C 
HETATM    4  C   UNK N   1      77.708  38.599   5.291  0.00  0.00     0.003 C 
HETATM    5  C   UNK N   1      76.784  39.078   1.044  0.00  0.00    -0.002 C 
HETATM    6  C   UNK N   1      76.983  40.188   3.407  0.00  0.00     0.010 C 
HETATM    7  C   UNK N   1      78.517  38.437   6.640  0.00  0.00    -0.017 C 
HETATM    8  C   UNK N   1      77.777  36.907   1.725  0.00  0.00     0.006 C 
HETATM    9  C   UNK N   1      77.710  40.062   4.752  0.00  0.00     0.007 C 
HETATM   10  C   UNK N   1      77.203  37.674   0.515  0.00  0.00     0.006 C 
HETATM   11  C   UNK N   1      77.937  36.149   4.757  0.00  0.00     0.033 C 
HETATM   12  C   UNK N   1      79.081  39.623   2.020  0.00  0.00     0.016 C 
HETATM   13  C   UNK N   1      78.658  36.956   7.029  0.00  0.00    -0.072 C 
HETATM   14  C   UNK N   1      77.703  39.150   7.766  0.00  0.00     0.016 C 
HETATM   15  C   UNK N   1      78.365  35.944   6.188  0.00  0.00    -0.023 C 
HETATM   16  C   UNK N   1      79.947  39.039   6.542  0.00  0.00     0.020 C 
HETATM   17  C   UNK N   1      79.137  36.642   8.436  0.00  0.00     0.066 C 
HETATM   18  C   UNK N   1      78.244  38.876   9.180  0.00  0.00     0.033 C 
HETATM   19  C   UNK N   1      78.253  37.364   9.464  0.00  0.00     0.122 C 
ENDROOT
BRANCH   5  20
HETATM   20  C   UNK N   1      76.841  40.185  -0.057  0.00  0.00    -0.014 C 
HETATM   21  C   UNK N   1      75.485  40.871  -0.307  0.00  0.00     0.010 C 
BRANCH  20  22
HETATM   22  C   UNK N   1      77.415  39.648  -1.392  0.00  0.00     0.005 C 
BRANCH  22  23
HETATM   23  C   UNK N   1      76.403  39.613  -2.556  0.00  0.00     0.005 C 
BRANCH  23  24
HETATM   24  C   UNK N   1      76.271  38.225  -3.226  0.00  0.00    -0.015 C 
HETATM   25  C   UNK N   1      77.661  37.559  -3.230  0.00  0.00     0.010 C 
BRANCH  24  26
HETATM   26  C   UNK N   1      75.156  37.329  -2.583  0.00  0.00    -0.019 C 
HETATM   27  C   UNK N   1      73.898  38.137  -2.233  0.00  0.00     0.010 C 
HETATM   28  C   UNK N   1      74.776  36.107  -3.436  0.00  0.00     0.010 C 
ENDBRANCH  24  26
ENDBRANCH  23  24
ENDBRANCH  22  23
ENDBRANCH  20  22
ENDBRANCH   5  20
BRANCH  19  29
HETATM   29  O   UNK N   1      78.746  37.149  10.760  0.00  0.00    -0.395 OA
HETATM   30  H   UNK N   1      78.671  36.176  10.937  0.00  0.00     0.210 HD
ENDBRANCH  19  29
TORSDOF 6
ENDMDL
MODEL 2
REMARK VINA RESULT:      -5.3      2.957      5.163
REMARK  6 active torsions:
REMARK  status: ('A' for Active; 'I' for Inactive)
REMARK    1  A    between atoms: O_1  and  C_22 
REMARK    2  A    between atoms: C_6  and  C_13 
REMARK    3  A    between atoms: C_13  and  C_21 
REMARK    4  A    between atoms: C_21  and  C_24 
REMARK    5  A    between atoms: C_24  and  C_25 
REMARK    6  A    between atoms: C_25  and  C_26 
ROOT
HETATM    1  C   UNK N   1      78.330  38.270   5.313  0.00  0.00    -0.036 C 
HETATM    2  C   UNK N   1      78.067  37.342   6.518  0.00  0.00    -0.001 C 
HETATM    3  C   UNK N   1      78.396  38.003   7.877  0.00  0.00    -0.001 C 
HETATM    4  C   UNK N   1      77.567  39.299   8.037  0.00  0.00     0.003 C 
HETATM    5  C   UNK N   1      77.952  37.297   4.168  0.00  0.00    -0.002 C 
HETATM    6  C   UNK N   1      77.377  39.488   5.482  0.00  0.00     0.010 C 
HETATM    7  C   UNK N   1      77.936  40.033   9.388  0.00  0.00    -0.017 C 
HETATM    8  C   UNK N   1      78.786  36.054   6.148  0.00  0.00     0.006 C 
HETATM    9  C   UNK N   1      77.668  40.233   6.791  0.00  0.00     0.007 C 
HETATM   10  C   UNK N   1      78.572  35.943   4.625  0.00  0.00     0.006 C 
HETATM   11  C   UNK N   1      78.054  37.037   9.028  0.00  0.00     0.033 C 
HETATM   12  C   UNK N   1      79.819  38.725   5.168  0.00  0.00     0.016 C 
HETATM   13  C   UNK N   1      78.018  39.036  10.556  0.00  0.00    -0.072 C 
HETATM   14  C   UNK N   1      76.790  41.044   9.704  0.00  0.00     0.016 C 
HETATM   15  C   UNK N   1      78.038  37.699  10.382  0.00  0.00    -0.023 C 
HETATM   16  C   UNK N   1      79.301  40.771   9.301  0.00  0.00     0.020 C 
HETATM   17  C   UNK N   1      78.062  39.606  11.964  0.00  0.00     0.066 C 
HETATM   18  C   UNK N   1      76.889  41.663  11.109  0.00  0.00     0.033 C 
HETATM   19  C   UNK N   1      76.879  40.559  12.181  0.00  0.00     0.122 C 
ENDROOT
BRANCH   5  20
HETATM   20  C   UNK N   1      78.289  37.653   2.685  0.00  0.00    -0.014 C 
HETATM   21  C   UNK N   1      77.052  38.023   1.846  0.00  0.00     0.010 C 
BRANCH  20  22
HETATM   22  C   UNK N   1      79.085  36.524   1.984  0.00  0.00     0.005 C 
BRANCH  22  23
HETATM   23  C   UNK N   1      80.585  36.826   1.788  0.00  0.00     0.005 C 
BRANCH  23  24
HETATM   24  C   UNK N   1      81.519  35.701   2.295  0.00  0.00    -0.015 C 
HETATM   25  C   UNK N   1      82.136  36.157   3.632  0.00  0.00     0.010 C 
BRANCH  24  26
HETATM   26  C   UNK N   1      80.816  34.303   2.382  0.00  0.00    -0.019 C 
HETATM   27  C   UNK N   1      81.093  33.440   1.142  0.00  0.00     0.010 C 
HETATM   28  C   UNK N   1      81.161  33.515   3.658  0.00  0.00     0.010 C 
ENDBRANCH  24  26
ENDBRANCH  23  24
ENDBRANCH  22  23
ENDBRANCH  20  22
ENDBRANCH   5  20
BRANCH  19  29
HETATM   29  O   UNK N   1      76.965  41.157  13.447  0.00  0.00    -0.395 OA
HETATM   30  H   UNK N   1      76.504  42.033  13.382  0.00  0.00     0.210 HD
ENDBRANCH  19  29
TORSDOF 6
ENDMDL
MODEL 3
REMARK VINA RESULT:      -5.2      3.146      9.239
REMARK  6 active torsions:
REMARK  status: ('A' for Active; 'I' for Inactive)
REMARK    1  A    between atoms: O_1  and  C_22 
REMARK    2  A    between atoms: C_6  and  C_13 
REMARK    3  A    between atoms: C_13  and  C_21 
REMARK    4  A    between atoms: C_21  and  C_24 
REMARK    5  A    between atoms: C_24  and  C_25 
REMARK    6  A    between atoms: C_25  and  C_26 
ROOT
HETATM    1  C   UNK N   1      78.579  37.579   5.861  0.00  0.00    -0.036 C 
HETATM    2  C   UNK N   1      77.609  38.654   5.324  0.00  0.00    -0.001 C 
HETATM    3  C   UNK N   1      77.695  38.837   3.791  0.00  0.00    -0.001 C 
HETATM    4  C   UNK N   1      77.405  37.488   3.091  0.00  0.00     0.003 C 
HETATM    5  C   UNK N   1      78.264  37.701   7.373  0.00  0.00    -0.002 C 
HETATM    6  C   UNK N   1      78.149  36.235   5.206  0.00  0.00     0.010 C 
HETATM    7  C   UNK N   1      77.556  37.631   1.523  0.00  0.00    -0.017 C 
HETATM    8  C   UNK N   1      77.875  39.860   6.212  0.00  0.00     0.006 C 
HETATM    9  C   UNK N   1      78.249  36.315   3.678  0.00  0.00     0.007 C 
HETATM   10  C   UNK N   1      78.148  39.238   7.597  0.00  0.00     0.006 C 
HETATM   11  C   UNK N   1      76.661  39.882   3.327  0.00  0.00     0.033 C 
HETATM   12  C   UNK N   1      80.089  37.888   5.596  0.00  0.00     0.016 C 
HETATM   13  C   UNK N   1      76.872  38.911   1.015  0.00  0.00    -0.072 C 
HETATM   14  C   UNK N   1      76.833  36.413   0.867  0.00  0.00     0.016 C 
HETATM   15  C   UNK N   1      76.449  39.894   1.835  0.00  0.00    -0.023 C 
HETATM   16  C   UNK N   1      79.044  37.682   1.079  0.00  0.00     0.020 C 
HETATM   17  C   UNK N   1      76.661  39.047  -0.484  0.00  0.00     0.066 C 
HETATM   18  C   UNK N   1      76.689  36.536  -0.660  0.00  0.00     0.033 C 
HETATM   19  C   UNK N   1      75.917  37.816  -1.021  0.00  0.00     0.122 C 
ENDROOT
BRANCH   5  20
HETATM   20  C   UNK N   1      79.176  36.998   8.429  0.00  0.00    -0.014 C 
HETATM   21  C   UNK N   1      78.420  36.001   9.326  0.00  0.00     0.010 C 
BRANCH  20  22
HETATM   22  C   UNK N   1      79.944  38.020   9.305  0.00  0.00     0.005 C 
BRANCH  22  23
HETATM   23  C   UNK N   1      81.470  38.034   9.082  0.00  0.00     0.005 C 
BRANCH  23  24
HETATM   24  C   UNK N   1      82.250  37.107  10.045  0.00  0.00    -0.015 C 
HETATM   25  C   UNK N   1      81.459  37.010  11.364  0.00  0.00     0.010 C 
BRANCH  24  26
HETATM   26  C   UNK N   1      82.588  35.709   9.421  0.00  0.00    -0.019 C 
HETATM   27  C   UNK N   1      81.783  34.576  10.073  0.00  0.00     0.010 C 
HETATM   28  C   UNK N   1      82.424  35.658   7.891  0.00  0.00     0.010 C 
ENDBRANCH  24  26
ENDBRANCH  23  24
ENDBRANCH  22  23
ENDBRANCH  20  22
ENDBRANCH   5  20
BRANCH  19  29
HETATM   29  O   UNK N   1      75.798  37.895  -2.417  0.00  0.00    -0.395 OA
HETATM   30  H   UNK N   1      75.024  38.485  -2.606  0.00  0.00     0.210 HD
ENDBRANCH  19  29
TORSDOF 6
ENDMDL
MODEL 4
REMARK VINA RESULT:      -5.2      1.931      3.621
REMARK  6 active torsions:
REMARK  status: ('A' for Active; 'I' for Inactive)
REMARK    1  A    between atoms: O_1  and  C_22 
REMARK    2  A    between atoms: C_6  and  C_13 
REMARK    3  A    between atoms: C_13  and  C_21 
REMARK    4  A    between atoms: C_21  and  C_24 
REMARK    5  A    between atoms: C_24  and  C_25 
REMARK    6  A    between atoms: C_25  and  C_26 
ROOT
HETATM    1  C   UNK N   1      78.167  38.450   5.091  0.00  0.00    -0.036 C 
HETATM    2  C   UNK N   1      78.030  37.493   6.295  0.00  0.00    -0.001 C 
HETATM    3  C   UNK N   1      78.378  38.161   7.645  0.00  0.00    -0.001 C 
HETATM    4  C   UNK N   1      77.468  39.394   7.862  0.00  0.00     0.003 C 
HETATM    5  C   UNK N   1      77.803  37.464   3.953  0.00  0.00    -0.002 C 
HETATM    6  C   UNK N   1      77.140  39.595   5.323  0.00  0.00     0.010 C 
HETATM    7  C   UNK N   1      77.851  40.138   9.205  0.00  0.00    -0.017 C 
HETATM    8  C   UNK N   1      78.819  36.263   5.873  0.00  0.00     0.006 C 
HETATM    9  C   UNK N   1      77.441  40.345   6.627  0.00  0.00     0.007 C 
HETATM   10  C   UNK N   1      78.538  36.153   4.360  0.00  0.00     0.006 C 
HETATM   11  C   UNK N   1      78.162  37.162   8.798  0.00  0.00     0.033 C 
HETATM   12  C   UNK N   1      79.612  39.011   4.880  0.00  0.00     0.016 C 
HETATM   13  C   UNK N   1      78.060  39.137  10.353  0.00  0.00    -0.072 C 
HETATM   14  C   UNK N   1      76.653  41.061   9.590  0.00  0.00     0.016 C 
HETATM   15  C   UNK N   1      78.165  37.807  10.160  0.00  0.00    -0.023 C 
HETATM   16  C   UNK N   1      79.154  40.972   9.061  0.00  0.00     0.020 C 
HETATM   17  C   UNK N   1      78.133  39.694  11.765  0.00  0.00     0.066 C 
HETATM   18  C   UNK N   1      76.777  41.672  10.996  0.00  0.00     0.033 C 
HETATM   19  C   UNK N   1      76.897  40.559  12.052  0.00  0.00     0.122 C 
ENDROOT
BRANCH   5  20
HETATM   20  C   UNK N   1      78.041  37.859   2.460  0.00  0.00    -0.014 C 
HETATM   21  C   UNK N   1      76.930  38.751   1.877  0.00  0.00     0.010 C 
BRANCH  20  22
HETATM   22  C   UNK N   1      78.250  36.617   1.558  0.00  0.00     0.005 C 
BRANCH  22  23
HETATM   23  C   UNK N   1      78.688  36.941   0.115  0.00  0.00     0.005 C 
BRANCH  23  24
HETATM   24  C   UNK N   1      77.805  36.279  -0.970  0.00  0.00    -0.015 C 
HETATM   25  C   UNK N   1      76.906  35.232  -0.283  0.00  0.00     0.010 C 
BRANCH  24  26
HETATM   26  C   UNK N   1      77.003  37.314  -1.833  0.00  0.00    -0.019 C 
HETATM   27  C   UNK N   1      75.569  37.505  -1.320  0.00  0.00     0.010 C 
HETATM   28  C   UNK N   1      77.701  38.679  -1.966  0.00  0.00     0.010 C 
ENDBRANCH  24  26
ENDBRANCH  23  24
ENDBRANCH  22  23
ENDBRANCH  20  22
ENDBRANCH   5  20
BRANCH  19  29
HETATM   29  O   UNK N   1      77.003  41.148  13.321  0.00  0.00    -0.395 OA
HETATM   30  H   UNK N   1      77.969  41.303  13.485  0.00  0.00     0.210 HD
ENDBRANCH  19  29
TORSDOF 6
ENDMDL
MODEL 5
REMARK VINA RESULT:      -5.1      3.236      8.994
REMARK  6 active torsions:
REMARK  status: ('A' for Active; 'I' for Inactive)
REMARK    1  A    between atoms: O_1  and  C_22 
REMARK    2  A    between atoms: C_6  and  C_13 
REMARK    3  A    between atoms: C_13  and  C_21 
REMARK    4  A    between atoms: C_21  and  C_24 
REMARK    5  A    between atoms: C_24  and  C_25 
REMARK    6  A    between atoms: C_25  and  C_26 
ROOT
HETATM    1  C   UNK N   1      78.158  38.189   3.659  0.00  0.00    -0.036 C 
HETATM    2  C   UNK N   1      77.188  39.128   2.909  0.00  0.00    -0.001 C 
HETATM    3  C   UNK N   1      77.230  38.944   1.374  0.00  0.00    -0.001 C 
HETATM    4  C   UNK N   1      76.901  37.475   1.019  0.00  0.00     0.003 C 
HETATM    5  C   UNK N   1      77.890  38.668   5.108  0.00  0.00    -0.002 C 
HETATM    6  C   UNK N   1      77.691  36.738   3.349  0.00  0.00     0.010 C 
HETATM    7  C   UNK N   1      77.006  37.244  -0.542  0.00  0.00    -0.017 C 
HETATM    8  C   UNK N   1      77.497  40.502   3.482  0.00  0.00     0.006 C 
HETATM    9  C   UNK N   1      77.746  36.455   1.842  0.00  0.00     0.007 C 
HETATM   10  C   UNK N   1      77.803  40.216   4.967  0.00  0.00     0.006 C 
HETATM   11  C   UNK N   1      76.197  39.872   0.705  0.00  0.00     0.033 C 
HETATM   12  C   UNK N   1      79.664  38.396   3.289  0.00  0.00     0.016 C 
HETATM   13  C   UNK N   1      76.326  38.383  -1.319  0.00  0.00    -0.072 C 
HETATM   14  C   UNK N   1      76.247  35.921  -0.875  0.00  0.00     0.016 C 
HETATM   15  C   UNK N   1      75.941  39.539  -0.742  0.00  0.00    -0.023 C 
HETATM   16  C   UNK N   1      78.481  37.158  -1.025  0.00  0.00     0.020 C 
HETATM   17  C   UNK N   1      76.071  38.168  -2.802  0.00  0.00     0.066 C 
HETATM   18  C   UNK N   1      76.059  35.685  -2.384  0.00  0.00     0.033 C 
HETATM   19  C   UNK N   1      75.294  36.861  -3.016  0.00  0.00     0.122 C 
ENDROOT
BRANCH   5  20
HETATM   20  C   UNK N   1      78.824  38.213   6.275  0.00  0.00    -0.014 C 
HETATM   21  C   UNK N   1      78.487  36.814   6.820  0.00  0.00     0.010 C 
BRANCH  20  22
HETATM   22  C   UNK N   1      78.847  39.241   7.434  0.00  0.00     0.005 C 
BRANCH  22  23
HETATM   23  C   UNK N   1      78.199  38.743   8.743  0.00  0.00     0.005 C 
BRANCH  23  24
HETATM   24  C   UNK N   1      76.996  39.598   9.208  0.00  0.00    -0.015 C 
HETATM   25  C   UNK N   1      77.169  39.891  10.712  0.00  0.00     0.010 C 
BRANCH  24  26
HETATM   26  C   UNK N   1      76.781  40.889   8.345  0.00  0.00    -0.019 C 
HETATM   27  C   UNK N   1      75.418  40.891   7.640  0.00  0.00     0.010 C 
HETATM   28  C   UNK N   1      76.968  42.197   9.133  0.00  0.00     0.010 C 
ENDBRANCH  24  26
ENDBRANCH  23  24
ENDBRANCH  22  23
ENDBRANCH  20  22
ENDBRANCH   5  20
BRANCH  19  29
HETATM   29  O   UNK N   1      75.135  36.612  -4.388  0.00  0.00    -0.395 OA
HETATM   30  H   UNK N   1      75.937  36.108  -4.682  0.00  0.00     0.210 HD
ENDBRANCH  19  29
TORSDOF 6
ENDMDL
MODEL 6
REMARK VINA RESULT:      -5.1      2.998      9.589
REMARK  6 active torsions:
REMARK  status: ('A' for Active; 'I' for Inactive)
REMARK    1  A    between atoms: O_1  and  C_22 
REMARK    2  A    between atoms: C_6  and  C_13 
REMARK    3  A    between atoms: C_13  and  C_21 
REMARK    4  A    between atoms: C_21  and  C_24 
REMARK    5  A    between atoms: C_24  and  C_25 
REMARK    6  A    between atoms: C_25  and  C_26 
ROOT
HETATM    1  C   UNK N   1      78.684  37.589   6.095  0.00  0.00    -0.036 C 
HETATM    2  C   UNK N   1      77.687  38.656   5.592  0.00  0.00    -0.001 C 
HETATM    3  C   UNK N   1      77.746  38.870   4.062  0.00  0.00    -0.001 C 
HETATM    4  C   UNK N   1      77.472  37.529   3.341  0.00  0.00     0.003 C 
HETATM    5  C   UNK N   1      78.389  37.676   7.614  0.00  0.00    -0.002 C 
HETATM    6  C   UNK N   1      78.269  36.250   5.421  0.00  0.00     0.010 C 
HETATM    7  C   UNK N   1      77.596  37.704   1.774  0.00  0.00    -0.017 C 
HETATM    8  C   UNK N   1      77.944  39.849   6.500  0.00  0.00     0.006 C 
HETATM    9  C   UNK N   1      78.345  36.361   3.893  0.00  0.00     0.007 C 
HETATM   10  C   UNK N   1      78.249  39.206   7.868  0.00  0.00     0.006 C 
HETATM   11  C   UNK N   1      76.687  39.903   3.633  0.00  0.00     0.033 C 
HETATM   12  C   UNK N   1      80.184  37.931   5.814  0.00  0.00     0.016 C 
HETATM   13  C   UNK N   1      76.882  38.981   1.301  0.00  0.00    -0.072 C 
HETATM   14  C   UNK N   1      76.886  36.486   1.105  0.00  0.00     0.016 C 
HETATM   15  C   UNK N   1      76.453  39.940   2.145  0.00  0.00    -0.023 C 
HETATM   16  C   UNK N   1      79.077  37.791   1.309  0.00  0.00     0.020 C 
HETATM   17  C   UNK N   1      76.646  39.141  -0.192  0.00  0.00     0.066 C 
HETATM   18  C   UNK N   1      76.718  36.635  -0.417  0.00  0.00     0.033 C 
HETATM   19  C   UNK N   1      75.917  37.907  -0.743  0.00  0.00     0.122 C 
ENDROOT
BRANCH   5  20
HETATM   20  C   UNK N   1      79.329  36.970   8.643  0.00  0.00    -0.014 C 
HETATM   21  C   UNK N   1      78.693  35.738   9.311  0.00  0.00     0.010 C 
BRANCH  20  22
HETATM   22  C   UNK N   1      79.845  37.951   9.725  0.00  0.00     0.005 C 
BRANCH  22  23
HETATM   23  C   UNK N   1      79.509  37.540  11.173  0.00  0.00     0.005 C 
BRANCH  23  24
HETATM   24  C   UNK N   1      78.332  38.333  11.790  0.00  0.00    -0.015 C 
HETATM   25  C   UNK N   1      78.279  38.017  13.298  0.00  0.00     0.010 C 
BRANCH  24  26
HETATM   26  C   UNK N   1      78.388  39.868  11.480  0.00  0.00    -0.019 C 
HETATM   27  C   UNK N   1      76.995  40.512  11.498  0.00  0.00     0.010 C 
HETATM   28  C   UNK N   1      79.342  40.650  12.401  0.00  0.00     0.010 C 
ENDBRANCH  24  26
ENDBRANCH  23  24
ENDBRANCH  22  23
ENDBRANCH  20  22
ENDBRANCH   5  20
BRANCH  19  29
HETATM   29  O   UNK N   1      75.777  38.010  -2.135  0.00  0.00    -0.395 OA
HETATM   30  H   UNK N   1      75.363  38.894  -2.316  0.00  0.00     0.210 HD
ENDBRANCH  19  29
TORSDOF 6
ENDMDL
MODEL 7
REMARK VINA RESULT:      -5.0     16.196     19.185
REMARK  6 active torsions:
REMARK  status: ('A' for Active; 'I' for Inactive)
REMARK    1  A    between atoms: O_1  and  C_22 
REMARK    2  A    between atoms: C_6  and  C_13 
REMARK    3  A    between atoms: C_13  and  C_21 
REMARK    4  A    between atoms: C_21  and  C_24 
REMARK    5  A    between atoms: C_24  and  C_25 
REMARK    6  A    between atoms: C_25  and  C_26 
ROOT
HETATM    1  C   UNK N   1      83.444  21.963   3.968  0.00  0.00    -0.036 C 
HETATM    2  C   UNK N   1      81.989  21.457   3.853  0.00  0.00    -0.001 C 
HETATM    3  C   UNK N   1      81.892  19.991   3.372  0.00  0.00    -0.001 C 
HETATM    4  C   UNK N   1      82.680  19.076   4.339  0.00  0.00     0.003 C 
HETATM    5  C   UNK N   1      83.161  23.421   4.409  0.00  0.00    -0.002 C 
HETATM    6  C   UNK N   1      84.133  21.074   5.042  0.00  0.00     0.010 C 
HETATM    7  C   UNK N   1      82.656  17.578   3.831  0.00  0.00    -0.017 C 
HETATM    8  C   UNK N   1      81.294  22.534   3.034  0.00  0.00     0.006 C 
HETATM    9  C   UNK N   1      84.122  19.599   4.620  0.00  0.00     0.007 C 
HETATM   10  C   UNK N   1      81.955  23.842   3.518  0.00  0.00     0.006 C 
HETATM   11  C   UNK N   1      80.418  19.545   3.338  0.00  0.00     0.033 C 
HETATM   12  C   UNK N   1      84.235  21.949   2.619  0.00  0.00     0.016 C 
HETATM   13  C   UNK N   1      81.244  17.169   3.379  0.00  0.00    -0.072 C 
HETATM   14  C   UNK N   1      83.054  16.666   5.034  0.00  0.00     0.016 C 
HETATM   15  C   UNK N   1      80.246  18.055   3.194  0.00  0.00    -0.023 C 
HETATM   16  C   UNK N   1      83.621  17.349   2.634  0.00  0.00     0.020 C 
HETATM   17  C   UNK N   1      80.982  15.689   3.151  0.00  0.00     0.066 C 
HETATM   18  C   UNK N   1      82.846  15.166   4.760  0.00  0.00     0.033 C 
HETATM   19  C   UNK N   1      81.377  14.889   4.400  0.00  0.00     0.122 C 
ENDROOT
BRANCH   5  20
HETATM   20  C   UNK N   1      84.310  24.480   4.419  0.00  0.00    -0.014 C 
HETATM   21  C   UNK N   1      85.221  24.384   5.657  0.00  0.00     0.010 C 
BRANCH  20  22
HETATM   22  C   UNK N   1      83.769  25.925   4.271  0.00  0.00     0.005 C 
BRANCH  22  23
HETATM   23  C   UNK N   1      83.820  26.762   5.566  0.00  0.00     0.005 C 
BRANCH  23  24
HETATM   24  C   UNK N   1      82.456  26.879   6.288  0.00  0.00    -0.015 C 
HETATM   25  C   UNK N   1      81.357  27.021   5.217  0.00  0.00     0.010 C 
BRANCH  24  26
HETATM   26  C   UNK N   1      82.189  25.712   7.300  0.00  0.00    -0.019 C 
HETATM   27  C   UNK N   1      82.168  26.204   8.754  0.00  0.00     0.010 C 
HETATM   28  C   UNK N   1      80.910  24.912   6.997  0.00  0.00     0.010 C 
ENDBRANCH  24  26
ENDBRANCH  23  24
ENDBRANCH  22  23
ENDBRANCH  20  22
ENDBRANCH   5  20
BRANCH  19  29
HETATM   29  O   UNK N   1      81.220  13.514   4.163  0.00  0.00    -0.395 OA
HETATM   30  H   UNK N   1      81.400  13.053   5.022  0.00  0.00     0.210 HD
ENDBRANCH  19  29
TORSDOF 6
ENDMDL
MODEL 8
REMARK VINA RESULT:      -5.0     14.440     17.241
REMARK  6 active torsions:
REMARK  status: ('A' for Active; 'I' for Inactive)
REMARK    1  A    between atoms: O_1  and  C_22 
REMARK    2  A    between atoms: C_6  and  C_13 
REMARK    3  A    between atoms: C_13  and  C_21 
REMARK    4  A    between atoms: C_21  and  C_24 
REMARK    5  A    between atoms: C_24  and  C_25 
REMARK    6  A    between atoms: C_25  and  C_26 
ROOT
HETATM    1  C   UNK N   1      83.397  24.159   3.845  0.00  0.00    -0.036 C 
HETATM    2  C   UNK N   1      82.271  23.114   3.692  0.00  0.00    -0.001 C 
HETATM    3  C   UNK N   1      82.799  21.665   3.571  0.00  0.00    -0.001 C 
HETATM    4  C   UNK N   1      83.655  21.321   4.813  0.00  0.00     0.003 C 
HETATM    5  C   UNK N   1      82.533  25.444   3.887  0.00  0.00    -0.002 C 
HETATM    6  C   UNK N   1      84.133  23.819   5.173  0.00  0.00     0.010 C 
HETATM    7  C   UNK N   1      84.265  19.868   4.682  0.00  0.00    -0.017 C 
HETATM    8  C   UNK N   1      81.413  23.667   2.565  0.00  0.00     0.006 C 
HETATM    9  C   UNK N   1      84.731  22.407   5.120  0.00  0.00     0.007 C 
HETATM   10  C   UNK N   1      81.456  25.192   2.791  0.00  0.00     0.006 C 
HETATM   11  C   UNK N   1      81.617  20.681   3.480  0.00  0.00     0.033 C 
HETATM   12  C   UNK N   1      84.390  24.212   2.638  0.00  0.00     0.016 C 
HETATM   13  C   UNK N   1      83.210  18.866   4.185  0.00  0.00    -0.072 C 
HETATM   14  C   UNK N   1      84.719  19.416   6.106  0.00  0.00     0.016 C 
HETATM   15  C   UNK N   1      82.019  19.242   3.680  0.00  0.00    -0.023 C 
HETATM   16  C   UNK N   1      85.463  19.822   3.692  0.00  0.00     0.020 C 
HETATM   17  C   UNK N   1      83.542  17.386   4.292  0.00  0.00     0.066 C 
HETATM   18  C   UNK N   1      85.116  17.932   6.180  0.00  0.00     0.033 C 
HETATM   19  C   UNK N   1      83.943  17.042   5.734  0.00  0.00     0.122 C 
ENDROOT
BRANCH   5  20
HETATM   20  C   UNK N   1      83.204  26.851   3.771  0.00  0.00    -0.014 C 
HETATM   21  C   UNK N   1      84.136  27.184   4.950  0.00  0.00     0.010 C 
BRANCH  20  22
HETATM   22  C   UNK N   1      82.158  27.979   3.589  0.00  0.00     0.005 C 
BRANCH  22  23
HETATM   23  C   UNK N   1      81.938  28.856   4.839  0.00  0.00     0.005 C 
BRANCH  23  24
HETATM   24  C   UNK N   1      80.540  28.687   5.481  0.00  0.00    -0.015 C 
HETATM   25  C   UNK N   1      79.602  28.057   4.432  0.00  0.00     0.010 C 
BRANCH  24  26
HETATM   26  C   UNK N   1      80.572  27.900   6.836  0.00  0.00    -0.019 C 
HETATM   27  C   UNK N   1      80.285  26.405   6.642  0.00  0.00     0.010 C 
HETATM   28  C   UNK N   1      81.879  28.085   7.628  0.00  0.00     0.010 C 
ENDBRANCH  24  26
ENDBRANCH  23  24
ENDBRANCH  22  23
ENDBRANCH  20  22
ENDBRANCH   5  20
BRANCH  19  29
HETATM   29  O   UNK N   1      84.336  15.698   5.819  0.00  0.00    -0.395 OA
HETATM   30  H   UNK N   1      84.262  15.438   6.773  0.00  0.00     0.210 HD
ENDBRANCH  19  29
TORSDOF 6
ENDMDL
MODEL 9
REMARK VINA RESULT:      -4.9     20.243     23.748
REMARK  6 active torsions:
REMARK  status: ('A' for Active; 'I' for Inactive)
REMARK    1  A    between atoms: O_1  and  C_22 
REMARK    2  A    between atoms: C_6  and  C_13 
REMARK    3  A    between atoms: C_13  and  C_21 
REMARK    4  A    between atoms: C_21  and  C_24 
REMARK    5  A    between atoms: C_24  and  C_25 
REMARK    6  A    between atoms: C_25  and  C_26 
ROOT
HETATM    1  C   UNK N   1      83.714  15.888   5.047  0.00  0.00    -0.036 C 
HETATM    2  C   UNK N   1      84.181  17.272   5.550  0.00  0.00    -0.001 C 
HETATM    3  C   UNK N   1      83.849  18.419   4.568  0.00  0.00    -0.001 C 
HETATM    4  C   UNK N   1      82.324  18.454   4.308  0.00  0.00     0.003 C 
HETATM    5  C   UNK N   1      84.237  15.015   6.215  0.00  0.00    -0.002 C 
HETATM    6  C   UNK N   1      82.165  15.966   4.927  0.00  0.00     0.010 C 
HETATM    7  C   UNK N   1      81.965  19.574   3.252  0.00  0.00    -0.017 C 
HETATM    8  C   UNK N   1      85.635  17.047   5.934  0.00  0.00     0.006 C 
HETATM    9  C   UNK N   1      81.748  17.055   3.930  0.00  0.00     0.007 C 
HETATM   10  C   UNK N   1      85.639  15.619   6.519  0.00  0.00     0.006 C 
HETATM   11  C   UNK N   1      84.293  19.768   5.165  0.00  0.00     0.033 C 
HETATM   12  C   UNK N   1      84.371  15.441   3.700  0.00  0.00     0.016 C 
HETATM   13  C   UNK N   1      82.714  20.883   3.555  0.00  0.00    -0.072 C 
HETATM   14  C   UNK N   1      80.436  19.862   3.370  0.00  0.00     0.016 C 
HETATM   15  C   UNK N   1      83.731  20.961   4.436  0.00  0.00    -0.023 C 
HETATM   16  C   UNK N   1      82.326  19.149   1.800  0.00  0.00     0.020 C 
HETATM   17  C   UNK N   1      82.259  22.137   2.827  0.00  0.00     0.066 C 
HETATM   18  C   UNK N   1      79.980  21.096   2.572  0.00  0.00     0.033 C 
HETATM   19  C   UNK N   1      80.751  22.344   3.034  0.00  0.00     0.122 C 
ENDROOT
BRANCH   5  20
HETATM   20  C   UNK N   1      84.258  13.458   6.089  0.00  0.00    -0.014 C 
HETATM   21  C   UNK N   1      83.010  12.777   6.679  0.00  0.00     0.010 C 
BRANCH  20  22
HETATM   22  C   UNK N   1      85.538  12.842   6.708  0.00  0.00     0.005 C 
BRANCH  22  23
HETATM   23  C   UNK N   1      85.280  11.884   7.889  0.00  0.00     0.005 C 
BRANCH  23  24
HETATM   24  C   UNK N   1      85.731  12.445   9.259  0.00  0.00    -0.015 C 
HETATM   25  C   UNK N   1      86.963  13.343   9.027  0.00  0.00     0.010 C 
BRANCH  24  26
HETATM   26  C   UNK N   1      84.580  13.162  10.044  0.00  0.00    -0.019 C 
HETATM   27  C   UNK N   1      84.562  12.767  11.528  0.00  0.00     0.010 C 
HETATM   28  C   UNK N   1      84.600  14.694   9.908  0.00  0.00     0.010 C 
ENDBRANCH  24  26
ENDBRANCH  23  24
ENDBRANCH  22  23
ENDBRANCH  20  22
ENDBRANCH   5  20
BRANCH  19  29
HETATM   29  O   UNK N   1      80.310  23.450   2.291  0.00  0.00    -0.395 OA
HETATM   30  H   UNK N   1      80.169  23.133   1.362  0.00  0.00     0.210 HD
ENDBRANCH  19  29
TORSDOF 6
ENDMDL
