MODEL 1
REMARK VINA RESULT:      -5.9      0.000      0.000
REMARK  11 active torsions:
REMARK  status: ('A' for Active; 'I' for Inactive)
REMARK    1  A    between atoms: O_1  and  C_11 
REMARK    2  A    between atoms: O_1  and  C_17 
REMARK    3  A    between atoms: C_10  and  O_2 
REMARK    4  A    between atoms: O_3  and  C_14 
REMARK    5  A    between atoms: O_4  and  C_15 
REMARK    6  A    between atoms: O_5  and  C_16 
REMARK    7  A    between atoms: O_8  and  C_23 
REMARK    8  A    between atoms: O_9  and  C_25 
REMARK    9  A    between atoms: C_10  and  C_16 
REMARK   10  A    between atoms: C_17  and  C_18 
REMARK   11  A    between atoms: C_19  and  C_20 
ROOT
HETATM    1  C   UNK N   1      74.309  37.257 -12.066  0.00  0.00     0.147 C 
HETATM    2  C   UNK N   1      76.199  37.427 -10.337  0.00  0.00     0.166 C 
HETATM    3  C   UNK N   1      75.803  37.581 -11.826  0.00  0.00     0.084 C 
HETATM    4  C   UNK N   1      73.449  38.191 -11.183  0.00  0.00     0.083 C 
HETATM    5  C   UNK N   1      75.309  38.348  -9.471  0.00  0.00     0.176 C 
HETATM    6  C   UNK N   1      73.809  38.053  -9.687  0.00  0.00     0.152 C 
ENDROOT
BRANCH   2   7
HETATM    7  O   UNK N   1      77.524  37.799 -10.174  0.00  0.00    -0.310 OA
BRANCH   7   8
HETATM    8  C   UNK N   1      78.472  37.000  -9.613  0.00  0.00     0.283 C 
HETATM    9  O   UNK N   1      79.523  37.472  -9.206  0.00  0.00    -0.260 OA
BRANCH   8  10
HETATM   10  C   UNK N   1      78.136  35.581  -9.374  0.00  0.00     0.083 C 
HETATM   11  C   UNK N   1      78.643  34.904  -8.325  0.00  0.00     0.017 C 
BRANCH  11  12
HETATM   12  C   UNK N   1      78.230  33.522  -7.947  0.00  0.00    -0.033 A 
HETATM   13  C   UNK N   1      77.323  33.372  -6.885  0.00  0.00     0.050 A 
HETATM   14  C   UNK N   1      76.843  32.111  -6.512  0.00  0.00     0.099 A 
HETATM   15  C   UNK N   1      77.294  30.961  -7.205  0.00  0.00     0.098 A 
HETATM   16  C   UNK N   1      78.204  31.108  -8.258  0.00  0.00     0.040 A 
HETATM   17  C   UNK N   1      78.666  32.370  -8.633  0.00  0.00     0.014 A 
BRANCH  14  18
HETATM   18  O   UNK N   1      75.947  32.044  -5.502  0.00  0.00    -0.358 OA
HETATM   19  H   UNK N   1      75.291  31.344  -5.405  0.00  0.00     0.218 HD
ENDBRANCH  14  18
BRANCH  15  20
HETATM   20  O   UNK N   1      76.876  29.715  -6.892  0.00  0.00    -0.358 OA
HETATM   21  H   UNK N   1      76.088  29.298  -7.261  0.00  0.00     0.218 HD
ENDBRANCH  15  20
ENDBRANCH  11  12
ENDBRANCH   8  10
ENDBRANCH   7   8
ENDBRANCH   2   7
BRANCH   5  22
HETATM   22  O   UNK N   1      75.623  38.187  -8.111  0.00  0.00    -0.390 OA
HETATM   23  H   UNK N   1      75.758  37.215  -7.957  0.00  0.00     0.210 HD
ENDBRANCH   5  22
BRANCH   1  24
HETATM   24  O   UNK N   1      74.034  35.919 -11.715  0.00  0.00    -0.379 OA
HETATM   25  H   UNK N   1      73.055  35.771 -11.803  0.00  0.00     0.211 HD
ENDBRANCH   1  24
BRANCH   1  26
HETATM   26  C   UNK N   1      73.967  37.490 -13.526  0.00  0.00     0.176 C 
HETATM   27  O   UNK N   1      74.851  37.520 -14.371  0.00  0.00    -0.648 OA
BRANCH  26  28
HETATM   28  O   UNK N   1      72.681  37.680 -13.894  0.00  0.00    -0.774 OA
HETATM   29  H   UNK N   1      71.958  37.571 -13.261  0.00  0.00     0.167 HD
ENDBRANCH  26  28
ENDBRANCH   1  26
BRANCH   6  30
HETATM   30  O   UNK N   1      73.503  36.763  -9.222  0.00  0.00    -0.393 OA
HETATM   31  H   UNK N   1      72.819  36.393  -9.840  0.00  0.00     0.210 HD
ENDBRANCH   6  30
TORSDOF 11
ENDMDL
MODEL 2
REMARK VINA RESULT:      -5.9      5.108      7.986
REMARK  11 active torsions:
REMARK  status: ('A' for Active; 'I' for Inactive)
REMARK    1  A    between atoms: O_1  and  C_11 
REMARK    2  A    between atoms: O_1  and  C_17 
REMARK    3  A    between atoms: C_10  and  O_2 
REMARK    4  A    between atoms: O_3  and  C_14 
REMARK    5  A    between atoms: O_4  and  C_15 
REMARK    6  A    between atoms: O_5  and  C_16 
REMARK    7  A    between atoms: O_8  and  C_23 
REMARK    8  A    between atoms: O_9  and  C_25 
REMARK    9  A    between atoms: C_10  and  C_16 
REMARK   10  A    between atoms: C_17  and  C_18 
REMARK   11  A    between atoms: C_19  and  C_20 
ROOT
HETATM    1  C   UNK N   1      77.180  30.966  -6.445  0.00  0.00     0.147 C 
HETATM    2  C   UNK N   1      78.893  32.583  -5.424  0.00  0.00     0.166 C 
HETATM    3  C   UNK N   1      78.344  31.135  -5.439  0.00  0.00     0.084 C 
HETATM    4  C   UNK N   1      77.679  31.365  -7.854  0.00  0.00     0.083 C 
HETATM    5  C   UNK N   1      79.360  32.970  -6.847  0.00  0.00     0.176 C 
HETATM    6  C   UNK N   1      78.222  32.811  -7.878  0.00  0.00     0.152 C 
ENDROOT
BRANCH   2   7
HETATM    7  O   UNK N   1      79.976  32.655  -4.561  0.00  0.00    -0.310 OA
BRANCH   7   8
HETATM    8  C   UNK N   1      79.925  33.225  -3.327  0.00  0.00     0.283 C 
HETATM    9  O   UNK N   1      80.910  33.235  -2.604  0.00  0.00    -0.260 OA
BRANCH   8  10
HETATM   10  C   UNK N   1      78.700  33.961  -2.948  0.00  0.00     0.083 C 
HETATM   11  C   UNK N   1      78.532  35.260  -3.266  0.00  0.00     0.017 C 
BRANCH  11  12
HETATM   12  C   UNK N   1      77.265  36.014  -3.044  0.00  0.00    -0.033 A 
HETATM   13  C   UNK N   1      76.083  35.493  -3.593  0.00  0.00     0.050 A 
HETATM   14  C   UNK N   1      74.846  36.113  -3.376  0.00  0.00     0.099 A 
HETATM   15  C   UNK N   1      74.787  37.299  -2.604  0.00  0.00     0.098 A 
HETATM   16  C   UNK N   1      75.966  37.825  -2.063  0.00  0.00     0.040 A 
HETATM   17  C   UNK N   1      77.192  37.193  -2.272  0.00  0.00     0.014 A 
BRANCH  14  18
HETATM   18  O   UNK N   1      73.744  35.537  -3.908  0.00  0.00    -0.358 OA
HETATM   19  H   UNK N   1      73.630  34.587  -4.023  0.00  0.00     0.218 HD
ENDBRANCH  14  18
BRANCH  15  20
HETATM   20  O   UNK N   1      73.628  37.950  -2.363  0.00  0.00    -0.358 OA
HETATM   21  H   UNK N   1      73.098  37.838  -1.565  0.00  0.00     0.218 HD
ENDBRANCH  15  20
ENDBRANCH  11  12
ENDBRANCH   8  10
ENDBRANCH   7   8
ENDBRANCH   2   7
BRANCH   5  22
HETATM   22  O   UNK N   1      79.818  34.298  -6.862  0.00  0.00    -0.390 OA
HETATM   23  H   UNK N   1      80.809  34.262  -6.916  0.00  0.00     0.210 HD
ENDBRANCH   5  22
BRANCH   1  24
HETATM   24  O   UNK N   1      76.100  31.801  -6.092  0.00  0.00    -0.379 OA
HETATM   25  H   UNK N   1      75.580  31.999  -6.915  0.00  0.00     0.211 HD
ENDBRANCH   1  24
BRANCH   1  26
HETATM   26  C   UNK N   1      76.731  29.517  -6.463  0.00  0.00     0.176 C 
HETATM   27  O   UNK N   1      76.659  28.879  -5.422  0.00  0.00    -0.648 OA
BRANCH  26  28
HETATM   28  O   UNK N   1      76.421  28.923  -7.635  0.00  0.00    -0.774 OA
HETATM   29  H   UNK N   1      77.096  28.766  -8.311  0.00  0.00     0.167 HD
ENDBRANCH  26  28
ENDBRANCH   1  26
BRANCH   6  30
HETATM   30  O   UNK N   1      77.195  33.730  -7.604  0.00  0.00    -0.393 OA
HETATM   31  H   UNK N   1      76.896  34.090  -8.480  0.00  0.00     0.210 HD
ENDBRANCH   6  30
TORSDOF 11
ENDMDL
MODEL 3
REMARK VINA RESULT:      -5.6      5.945      7.850
REMARK  11 active torsions:
REMARK  status: ('A' for Active; 'I' for Inactive)
REMARK    1  A    between atoms: O_1  and  C_11 
REMARK    2  A    between atoms: O_1  and  C_17 
REMARK    3  A    between atoms: C_10  and  O_2 
REMARK    4  A    between atoms: O_3  and  C_14 
REMARK    5  A    between atoms: O_4  and  C_15 
REMARK    6  A    between atoms: O_5  and  C_16 
REMARK    7  A    between atoms: O_8  and  C_23 
REMARK    8  A    between atoms: O_9  and  C_25 
REMARK    9  A    between atoms: C_10  and  C_16 
REMARK   10  A    between atoms: C_17  and  C_18 
REMARK   11  A    between atoms: C_19  and  C_20 
ROOT
HETATM    1  C   UNK N   1      76.108  36.056  -2.263  0.00  0.00     0.147 C 
HETATM    2  C   UNK N   1      78.462  35.070  -1.979  0.00  0.00     0.166 C 
HETATM    3  C   UNK N   1      77.534  35.949  -2.855  0.00  0.00     0.084 C 
HETATM    4  C   UNK N   1      76.206  36.637  -0.833  0.00  0.00     0.083 C 
HETATM    5  C   UNK N   1      78.522  35.653  -0.548  0.00  0.00     0.176 C 
HETATM    6  C   UNK N   1      77.113  35.776   0.073  0.00  0.00     0.152 C 
ENDROOT
BRANCH   2   7
HETATM    7  O   UNK N   1      79.739  35.070  -2.519  0.00  0.00    -0.310 OA
BRANCH   7   8
HETATM    8  C   UNK N   1      80.388  33.948  -2.930  0.00  0.00     0.283 C 
HETATM    9  O   UNK N   1      81.577  33.795  -2.692  0.00  0.00    -0.260 OA
BRANCH   8  10
HETATM   10  C   UNK N   1      79.590  32.861  -3.534  0.00  0.00     0.083 C 
HETATM   11  C   UNK N   1      78.903  33.043  -4.679  0.00  0.00     0.017 C 
BRANCH  11  12
HETATM   12  C   UNK N   1      78.204  31.949  -5.413  0.00  0.00    -0.033 A 
HETATM   13  C   UNK N   1      78.233  31.974  -6.817  0.00  0.00     0.050 A 
HETATM   14  C   UNK N   1      77.650  30.951  -7.574  0.00  0.00     0.099 A 
HETATM   15  C   UNK N   1      77.001  29.879  -6.913  0.00  0.00     0.098 A 
HETATM   16  C   UNK N   1      76.964  29.857  -5.515  0.00  0.00     0.040 A 
HETATM   17  C   UNK N   1      77.560  30.874  -4.768  0.00  0.00     0.014 A 
BRANCH  14  18
HETATM   18  O   UNK N   1      77.745  31.023  -8.921  0.00  0.00    -0.358 OA
HETATM   19  H   UNK N   1      78.393  30.539  -9.445  0.00  0.00     0.218 HD
ENDBRANCH  14  18
BRANCH  15  20
HETATM   20  O   UNK N   1      76.414  28.863  -7.584  0.00  0.00    -0.358 OA
HETATM   21  H   UNK N   1      76.296  28.841  -8.541  0.00  0.00     0.218 HD
ENDBRANCH  15  20
ENDBRANCH  11  12
ENDBRANCH   8  10
ENDBRANCH   7   8
ENDBRANCH   2   7
BRANCH   5  22
HETATM   22  O   UNK N   1      79.322  34.841   0.273  0.00  0.00    -0.390 OA
HETATM   23  H   UNK N   1      78.960  34.913   1.194  0.00  0.00     0.210 HD
ENDBRANCH   5  22
BRANCH   1  24
HETATM   24  O   UNK N   1      75.507  34.782  -2.197  0.00  0.00    -0.379 OA
HETATM   25  H   UNK N   1      75.077  34.689  -1.305  0.00  0.00     0.211 HD
ENDBRANCH   1  24
BRANCH   1  26
HETATM   26  C   UNK N   1      75.269  36.980  -3.125  0.00  0.00     0.176 C 
HETATM   27  O   UNK N   1      75.320  38.192  -2.964  0.00  0.00    -0.648 OA
BRANCH  26  28
HETATM   28  O   UNK N   1      74.451  36.464  -4.068  0.00  0.00    -0.774 OA
HETATM   29  H   UNK N   1      73.704  36.971  -4.415  0.00  0.00     0.167 HD
ENDBRANCH  26  28
ENDBRANCH   1  26
BRANCH   6  30
HETATM   30  O   UNK N   1      76.559  34.498   0.258  0.00  0.00    -0.393 OA
HETATM   31  H   UNK N   1      76.606  34.307   1.231  0.00  0.00     0.210 HD
ENDBRANCH   6  30
TORSDOF 11
ENDMDL
MODEL 4
REMARK VINA RESULT:      -5.4     18.756     20.880
REMARK  11 active torsions:
REMARK  status: ('A' for Active; 'I' for Inactive)
REMARK    1  A    between atoms: O_1  and  C_11 
REMARK    2  A    between atoms: O_1  and  C_17 
REMARK    3  A    between atoms: C_10  and  O_2 
REMARK    4  A    between atoms: O_3  and  C_14 
REMARK    5  A    between atoms: O_4  and  C_15 
REMARK    6  A    between atoms: O_5  and  C_16 
REMARK    7  A    between atoms: O_8  and  C_23 
REMARK    8  A    between atoms: O_9  and  C_25 
REMARK    9  A    between atoms: C_10  and  C_16 
REMARK   10  A    between atoms: C_17  and  C_18 
REMARK   11  A    between atoms: C_19  and  C_20 
ROOT
HETATM    1  C   UNK N   1      80.780  18.676   2.934  0.00  0.00     0.147 C 
HETATM    2  C   UNK N   1      82.143  20.851   3.007  0.00  0.00     0.166 C 
HETATM    3  C   UNK N   1      82.132  19.331   3.305  0.00  0.00     0.084 C 
HETATM    4  C   UNK N   1      80.500  18.931   1.434  0.00  0.00     0.083 C 
HETATM    5  C   UNK N   1      81.832  21.083   1.511  0.00  0.00     0.176 C 
HETATM    6  C   UNK N   1      80.489  20.440   1.104  0.00  0.00     0.152 C 
ENDROOT
BRANCH   2   7
HETATM    7  O   UNK N   1      83.398  21.366   3.292  0.00  0.00    -0.310 OA
BRANCH   7   8
HETATM    8  C   UNK N   1      83.708  22.011   4.448  0.00  0.00     0.283 C 
HETATM    9  O   UNK N   1      84.694  21.691   5.095  0.00  0.00    -0.260 OA
BRANCH   8  10
HETATM   10  C   UNK N   1      82.911  23.199   4.820  0.00  0.00     0.083 C 
HETATM   11  C   UNK N   1      83.352  24.085   5.736  0.00  0.00     0.017 C 
BRANCH  11  12
HETATM   12  C   UNK N   1      82.668  25.374   6.044  0.00  0.00    -0.033 A 
HETATM   13  C   UNK N   1      81.272  25.359   6.196  0.00  0.00     0.050 A 
HETATM   14  C   UNK N   1      80.567  26.517   6.544  0.00  0.00     0.099 A 
HETATM   15  C   UNK N   1      81.271  27.732   6.730  0.00  0.00     0.098 A 
HETATM   16  C   UNK N   1      82.662  27.750   6.571  0.00  0.00     0.040 A 
HETATM   17  C   UNK N   1      83.358  26.588   6.237  0.00  0.00     0.014 A 
BRANCH  14  18
HETATM   18  O   UNK N   1      79.228  26.423   6.706  0.00  0.00    -0.358 OA
HETATM   19  H   UNK N   1      78.585  26.948   6.215  0.00  0.00     0.218 HD
ENDBRANCH  14  18
BRANCH  15  20
HETATM   20  O   UNK N   1      80.652  28.887   7.061  0.00  0.00    -0.358 OA
HETATM   21  H   UNK N   1      80.781  29.352   7.895  0.00  0.00     0.218 HD
ENDBRANCH  15  20
ENDBRANCH  11  12
ENDBRANCH   8  10
ENDBRANCH   7   8
ENDBRANCH   2   7
BRANCH   5  22
HETATM   22  O   UNK N   1      81.792  22.460   1.232  0.00  0.00    -0.390 OA
HETATM   23  H   UNK N   1      80.992  22.826   1.693  0.00  0.00     0.210 HD
ENDBRANCH   5  22
BRANCH   1  24
HETATM   24  O   UNK N   1      79.735  19.240   3.694  0.00  0.00    -0.379 OA
HETATM   25  H   UNK N   1      79.634  20.192   3.424  0.00  0.00     0.211 HD
ENDBRANCH   1  24
BRANCH   1  26
HETATM   26  C   UNK N   1      80.854  17.182   3.184  0.00  0.00     0.176 C 
HETATM   27  O   UNK N   1      81.810  16.534   2.780  0.00  0.00    -0.648 OA
BRANCH  26  28
HETATM   28  O   UNK N   1      79.854  16.559   3.844  0.00  0.00    -0.774 OA
HETATM   29  H   UNK N   1      79.518  16.903   4.684  0.00  0.00     0.167 HD
ENDBRANCH  26  28
ENDBRANCH   1  26
BRANCH   6  30
HETATM   30  O   UNK N   1      79.430  21.084   1.766  0.00  0.00    -0.393 OA
HETATM   31  H   UNK N   1      79.841  21.738   2.389  0.00  0.00     0.210 HD
ENDBRANCH   6  30
TORSDOF 11
ENDMDL
MODEL 5
REMARK VINA RESULT:      -5.3     11.854     16.040
REMARK  11 active torsions:
REMARK  status: ('A' for Active; 'I' for Inactive)
REMARK    1  A    between atoms: O_1  and  C_11 
REMARK    2  A    between atoms: O_1  and  C_17 
REMARK    3  A    between atoms: C_10  and  O_2 
REMARK    4  A    between atoms: O_3  and  C_14 
REMARK    5  A    between atoms: O_4  and  C_15 
REMARK    6  A    between atoms: O_5  and  C_16 
REMARK    7  A    between atoms: O_8  and  C_23 
REMARK    8  A    between atoms: O_9  and  C_25 
REMARK    9  A    between atoms: C_10  and  C_16 
REMARK   10  A    between atoms: C_17  and  C_18 
REMARK   11  A    between atoms: C_19  and  C_20 
ROOT
HETATM    1  C   UNK N   1      79.619  28.579   4.090  0.00  0.00     0.147 C 
HETATM    2  C   UNK N   1      81.256  26.609   3.912  0.00  0.00     0.166 C 
HETATM    3  C   UNK N   1      80.802  27.961   3.307  0.00  0.00     0.084 C 
HETATM    4  C   UNK N   1      80.044  28.766   5.566  0.00  0.00     0.083 C 
HETATM    5  C   UNK N   1      81.648  26.814   5.393  0.00  0.00     0.176 C 
HETATM    6  C   UNK N   1      80.490  27.433   6.205  0.00  0.00     0.152 C 
ENDROOT
BRANCH   2   7
HETATM    7  O   UNK N   1      82.359  26.142   3.214  0.00  0.00    -0.310 OA
BRANCH   7   8
HETATM    8  C   UNK N   1      82.333  25.059   2.391  0.00  0.00     0.283 C 
HETATM    9  O   UNK N   1      82.466  23.931   2.842  0.00  0.00    -0.260 OA
BRANCH   8  10
HETATM   10  C   UNK N   1      81.990  25.271   0.970  0.00  0.00     0.083 C 
HETATM   11  C   UNK N   1      80.713  25.240   0.540  0.00  0.00     0.017 C 
BRANCH  11  12
HETATM   12  C   UNK N   1      80.292  25.591  -0.847  0.00  0.00    -0.033 A 
HETATM   13  C   UNK N   1      78.921  25.557  -1.148  0.00  0.00     0.050 A 
HETATM   14  C   UNK N   1      78.445  25.931  -2.410  0.00  0.00     0.099 A 
HETATM   15  C   UNK N   1      79.364  26.334  -3.410  0.00  0.00     0.098 A 
HETATM   16  C   UNK N   1      80.731  26.361  -3.114  0.00  0.00     0.040 A 
HETATM   17  C   UNK N   1      81.196  26.000  -1.849  0.00  0.00     0.014 A 
BRANCH  14  18
HETATM   18  O   UNK N   1      77.110  25.904  -2.620  0.00  0.00    -0.358 OA
HETATM   19  H   UNK N   1      76.667  25.294  -3.222  0.00  0.00     0.218 HD
ENDBRANCH  14  18
BRANCH  15  20
HETATM   20  O   UNK N   1      78.972  26.700  -4.650  0.00  0.00    -0.358 OA
HETATM   21  H   UNK N   1      78.796  27.611  -4.917  0.00  0.00     0.218 HD
ENDBRANCH  15  20
ENDBRANCH  11  12
ENDBRANCH   8  10
ENDBRANCH   7   8
ENDBRANCH   2   7
BRANCH   5  22
HETATM   22  O   UNK N   1      82.019  25.589   5.971  0.00  0.00    -0.390 OA
HETATM   23  H   UNK N   1      82.727  25.198   5.395  0.00  0.00     0.210 HD
ENDBRANCH   5  22
BRANCH   1  24
HETATM   24  O   UNK N   1      78.499  27.723   4.045  0.00  0.00    -0.379 OA
HETATM   25  H   UNK N   1      78.356  27.351   4.955  0.00  0.00     0.211 HD
ENDBRANCH   1  24
BRANCH   1  26
HETATM   26  C   UNK N   1      79.265  29.928   3.494  0.00  0.00     0.176 C 
HETATM   27  O   UNK N   1      80.121  30.602   2.937  0.00  0.00    -0.648 OA
BRANCH  26  28
HETATM   28  O   UNK N   1      78.002  30.396   3.589  0.00  0.00    -0.774 OA
HETATM   29  H   UNK N   1      77.445  30.497   2.804  0.00  0.00     0.167 HD
ENDBRANCH  26  28
ENDBRANCH   1  26
BRANCH   6  30
HETATM   30  O   UNK N   1      79.415  26.531   6.269  0.00  0.00    -0.393 OA
HETATM   31  H   UNK N   1      79.525  26.018   7.113  0.00  0.00     0.210 HD
ENDBRANCH   6  30
TORSDOF 11
ENDMDL
MODEL 6
REMARK VINA RESULT:      -5.3     14.753     18.226
REMARK  11 active torsions:
REMARK  status: ('A' for Active; 'I' for Inactive)
REMARK    1  A    between atoms: O_1  and  C_11 
REMARK    2  A    between atoms: O_1  and  C_17 
REMARK    3  A    between atoms: C_10  and  O_2 
REMARK    4  A    between atoms: O_3  and  C_14 
REMARK    5  A    between atoms: O_4  and  C_15 
REMARK    6  A    between atoms: O_5  and  C_16 
REMARK    7  A    between atoms: O_8  and  C_23 
REMARK    8  A    between atoms: O_9  and  C_25 
REMARK    9  A    between atoms: C_10  and  C_16 
REMARK   10  A    between atoms: C_17  and  C_18 
REMARK   11  A    between atoms: C_19  and  C_20 
ROOT
HETATM    1  C   UNK N   1      79.520  28.348   4.018  0.00  0.00     0.147 C 
HETATM    2  C   UNK N   1      81.284  26.483   4.091  0.00  0.00     0.166 C 
HETATM    3  C   UNK N   1      80.777  27.743   3.347  0.00  0.00     0.084 C 
HETATM    4  C   UNK N   1      79.859  28.692   5.487  0.00  0.00     0.083 C 
HETATM    5  C   UNK N   1      81.588  26.844   5.564  0.00  0.00     0.176 C 
HETATM    6  C   UNK N   1      80.355  27.453   6.265  0.00  0.00     0.152 C 
ENDROOT
BRANCH   2   7
HETATM    7  O   UNK N   1      82.447  26.030   3.489  0.00  0.00    -0.310 OA
BRANCH   7   8
HETATM    8  C   UNK N   1      82.474  25.111   2.487  0.00  0.00     0.283 C 
HETATM    9  O   UNK N   1      83.016  25.367   1.422  0.00  0.00    -0.260 OA
BRANCH   8  10
HETATM   10  C   UNK N   1      81.966  23.753   2.772  0.00  0.00     0.083 C 
HETATM   11  C   UNK N   1      82.725  22.659   2.562  0.00  0.00     0.017 C 
BRANCH  11  12
HETATM   12  C   UNK N   1      82.327  21.280   2.967  0.00  0.00    -0.033 A 
HETATM   13  C   UNK N   1      81.005  21.073   3.392  0.00  0.00     0.050 A 
HETATM   14  C   UNK N   1      80.542  19.796   3.730  0.00  0.00     0.099 A 
HETATM   15  C   UNK N   1      81.428  18.692   3.661  0.00  0.00     0.098 A 
HETATM   16  C   UNK N   1      82.748  18.898   3.245  0.00  0.00     0.040 A 
HETATM   17  C   UNK N   1      83.197  20.172   2.896  0.00  0.00     0.014 A 
BRANCH  14  18
HETATM   18  O   UNK N   1      79.248  19.665   4.100  0.00  0.00    -0.358 OA
HETATM   19  H   UNK N   1      78.498  19.823   3.515  0.00  0.00     0.218 HD
ENDBRANCH  14  18
BRANCH  15  20
HETATM   20  O   UNK N   1      81.047  17.436   3.979  0.00  0.00    -0.358 OA
HETATM   21  H   UNK N   1      80.135  17.121   3.952  0.00  0.00     0.218 HD
ENDBRANCH  15  20
ENDBRANCH  11  12
ENDBRANCH   8  10
ENDBRANCH   7   8
ENDBRANCH   2   7
BRANCH   5  22
HETATM   22  O   UNK N   1      82.005  25.701   6.267  0.00  0.00    -0.390 OA
HETATM   23  H   UNK N   1      81.189  25.274   6.637  0.00  0.00     0.210 HD
ENDBRANCH   5  22
BRANCH   1  24
HETATM   24  O   UNK N   1      78.459  27.419   4.001  0.00  0.00    -0.379 OA
HETATM   25  H   UNK N   1      77.672  27.855   3.580  0.00  0.00     0.211 HD
ENDBRANCH   1  24
BRANCH   1  26
HETATM   26  C   UNK N   1      79.113  29.613   3.286  0.00  0.00     0.176 C 
HETATM   27  O   UNK N   1      79.894  30.549   3.188  0.00  0.00    -0.648 OA
BRANCH  26  28
HETATM   28  O   UNK N   1      77.877  29.713   2.750  0.00  0.00    -0.774 OA
HETATM   29  H   UNK N   1      77.686  29.368   1.867  0.00  0.00     0.167 HD
ENDBRANCH  26  28
ENDBRANCH   1  26
BRANCH   6  30
HETATM   30  O   UNK N   1      79.336  26.491   6.363  0.00  0.00    -0.393 OA
HETATM   31  H   UNK N   1      78.717  26.653   5.604  0.00  0.00     0.210 HD
ENDBRANCH   6  30
TORSDOF 11
ENDMDL
MODEL 7
REMARK VINA RESULT:      -5.3      5.414      6.514
REMARK  11 active torsions:
REMARK  status: ('A' for Active; 'I' for Inactive)
REMARK    1  A    between atoms: O_1  and  C_11 
REMARK    2  A    between atoms: O_1  and  C_17 
REMARK    3  A    between atoms: C_10  and  O_2 
REMARK    4  A    between atoms: O_3  and  C_14 
REMARK    5  A    between atoms: O_4  and  C_15 
REMARK    6  A    between atoms: O_5  and  C_16 
REMARK    7  A    between atoms: O_8  and  C_23 
REMARK    8  A    between atoms: O_9  and  C_25 
REMARK    9  A    between atoms: C_10  and  C_16 
REMARK   10  A    between atoms: C_17  and  C_18 
REMARK   11  A    between atoms: C_19  and  C_20 
ROOT
HETATM    1  C   UNK N   1      76.458  38.179  -4.466  0.00  0.00     0.147 C 
HETATM    2  C   UNK N   1      77.266  36.078  -3.232  0.00  0.00     0.166 C 
HETATM    3  C   UNK N   1      77.628  37.507  -3.707  0.00  0.00     0.084 C 
HETATM    4  C   UNK N   1      75.221  38.219  -3.539  0.00  0.00     0.083 C 
HETATM    5  C   UNK N   1      76.011  36.138  -2.330  0.00  0.00     0.176 C 
HETATM    6  C   UNK N   1      74.824  36.806  -3.056  0.00  0.00     0.152 C 
ENDROOT
BRANCH   2   7
HETATM    7  O   UNK N   1      78.322  35.557  -2.500  0.00  0.00    -0.310 OA
BRANCH   7   8
HETATM    8  C   UNK N   1      79.005  34.434  -2.848  0.00  0.00     0.283 C 
HETATM    9  O   UNK N   1      79.939  34.037  -2.168  0.00  0.00    -0.260 OA
BRANCH   8  10
HETATM   10  C   UNK N   1      78.495  33.629  -3.978  0.00  0.00     0.083 C 
HETATM   11  C   UNK N   1      78.773  32.315  -4.089  0.00  0.00     0.017 C 
BRANCH  11  12
HETATM   12  C   UNK N   1      78.170  31.421  -5.119  0.00  0.00    -0.033 A 
HETATM   13  C   UNK N   1      77.744  30.144  -4.715  0.00  0.00     0.050 A 
HETATM   14  C   UNK N   1      77.115  29.272  -5.611  0.00  0.00     0.099 A 
HETATM   15  C   UNK N   1      76.920  29.675  -6.956  0.00  0.00     0.098 A 
HETATM   16  C   UNK N   1      77.351  30.943  -7.361  0.00  0.00     0.040 A 
HETATM   17  C   UNK N   1      77.964  31.812  -6.458  0.00  0.00     0.014 A 
BRANCH  14  18
HETATM   18  O   UNK N   1      76.702  28.071  -5.147  0.00  0.00    -0.358 OA
HETATM   19  H   UNK N   1      75.805  27.732  -5.244  0.00  0.00     0.218 HD
ENDBRANCH  14  18
BRANCH  15  20
HETATM   20  O   UNK N   1      76.326  28.879  -7.872  0.00  0.00    -0.358 OA
HETATM   21  H   UNK N   1      76.788  28.211  -8.392  0.00  0.00     0.218 HD
ENDBRANCH  15  20
ENDBRANCH  11  12
ENDBRANCH   8  10
ENDBRANCH   7   8
ENDBRANCH   2   7
BRANCH   5  22
HETATM   22  O   UNK N   1      75.641  34.844  -1.927  0.00  0.00    -0.390 OA
HETATM   23  H   UNK N   1      74.775  34.925  -1.449  0.00  0.00     0.210 HD
ENDBRANCH   5  22
BRANCH   1  24
HETATM   24  O   UNK N   1      76.135  37.441  -5.624  0.00  0.00    -0.379 OA
HETATM   25  H   UNK N   1      76.341  38.004  -6.417  0.00  0.00     0.211 HD
ENDBRANCH   1  24
BRANCH   1  26
HETATM   26  C   UNK N   1      76.847  39.595  -4.846  0.00  0.00     0.176 C 
HETATM   27  O   UNK N   1      77.778  40.154  -4.282  0.00  0.00    -0.648 OA
BRANCH  26  28
HETATM   28  O   UNK N   1      76.154  40.250  -5.803  0.00  0.00    -0.774 OA
HETATM   29  H   UNK N   1      76.607  40.692  -6.535  0.00  0.00     0.167 HD
ENDBRANCH  26  28
ENDBRANCH   1  26
BRANCH   6  30
HETATM   30  O   UNK N   1      74.416  36.010  -4.140  0.00  0.00    -0.393 OA
HETATM   31  H   UNK N   1      73.660  35.454  -3.815  0.00  0.00     0.210 HD
ENDBRANCH   6  30
TORSDOF 11
ENDMDL
MODEL 8
REMARK VINA RESULT:      -5.3     19.907     22.077
REMARK  11 active torsions:
REMARK  status: ('A' for Active; 'I' for Inactive)
REMARK    1  A    between atoms: O_1  and  C_11 
REMARK    2  A    between atoms: O_1  and  C_17 
REMARK    3  A    between atoms: C_10  and  O_2 
REMARK    4  A    between atoms: O_3  and  C_14 
REMARK    5  A    between atoms: O_4  and  C_15 
REMARK    6  A    between atoms: O_5  and  C_16 
REMARK    7  A    between atoms: O_8  and  C_23 
REMARK    8  A    between atoms: O_9  and  C_25 
REMARK    9  A    between atoms: C_10  and  C_16 
REMARK   10  A    between atoms: C_17  and  C_18 
REMARK   11  A    between atoms: C_19  and  C_20 
ROOT
HETATM    1  C   UNK N   1      81.782  27.552   7.907  0.00  0.00     0.147 C 
HETATM    2  C   UNK N   1      83.008  28.675   9.862  0.00  0.00     0.166 C 
HETATM    3  C   UNK N   1      82.026  27.556   9.435  0.00  0.00     0.084 C 
HETATM    4  C   UNK N   1      83.140  27.378   7.186  0.00  0.00     0.083 C 
HETATM    5  C   UNK N   1      84.348  28.499   9.109  0.00  0.00     0.176 C 
HETATM    6  C   UNK N   1      84.140  28.488   7.579  0.00  0.00     0.152 C 
ENDROOT
BRANCH   2   7
HETATM    7  O   UNK N   1      83.243  28.584  11.225  0.00  0.00    -0.310 OA
BRANCH   7   8
HETATM    8  C   UNK N   1      82.278  28.730  12.172  0.00  0.00     0.283 C 
HETATM    9  O   UNK N   1      82.319  28.084  13.208  0.00  0.00    -0.260 OA
BRANCH   8  10
HETATM   10  C   UNK N   1      81.269  29.794  11.982  0.00  0.00     0.083 C 
HETATM   11  C   UNK N   1      81.540  31.082  12.270  0.00  0.00     0.017 C 
BRANCH  11  12
HETATM   12  C   UNK N   1      80.621  32.215  11.962  0.00  0.00    -0.033 A 
HETATM   13  C   UNK N   1      79.265  32.076  12.304  0.00  0.00     0.050 A 
HETATM   14  C   UNK N   1      78.354  33.119  12.101  0.00  0.00     0.099 A 
HETATM   15  C   UNK N   1      78.802  34.333  11.523  0.00  0.00     0.098 A 
HETATM   16  C   UNK N   1      80.150  34.470  11.175  0.00  0.00     0.040 A 
HETATM   17  C   UNK N   1      81.055  33.430  11.393  0.00  0.00     0.014 A 
BRANCH  14  18
HETATM   18  O   UNK N   1      77.072  32.927  12.484  0.00  0.00    -0.358 OA
HETATM   19  H   UNK N   1      76.383  33.600  12.427  0.00  0.00     0.218 HD
ENDBRANCH  14  18
BRANCH  15  20
HETATM   20  O   UNK N   1      77.974  35.376  11.295  0.00  0.00    -0.358 OA
HETATM   21  H   UNK N   1      78.019  36.218  11.763  0.00  0.00     0.218 HD
ENDBRANCH  15  20
ENDBRANCH  11  12
ENDBRANCH   8  10
ENDBRANCH   7   8
ENDBRANCH   2   7
BRANCH   5  22
HETATM   22  O   UNK N   1      85.235  29.534   9.450  0.00  0.00    -0.390 OA
HETATM   23  H   UNK N   1      86.154  29.166   9.372  0.00  0.00     0.210 HD
ENDBRANCH   5  22
BRANCH   1  24
HETATM   24  O   UNK N   1      81.203  28.771   7.498  0.00  0.00    -0.379 OA
HETATM   25  H   UNK N   1      81.818  29.508   7.755  0.00  0.00     0.211 HD
ENDBRANCH   1  24
BRANCH   1  26
HETATM   26  C   UNK N   1      80.869  26.396   7.543  0.00  0.00     0.176 C 
HETATM   27  O   UNK N   1      79.924  26.570   6.784  0.00  0.00    -0.648 OA
BRANCH  26  28
HETATM   28  O   UNK N   1      81.090  25.172   8.068  0.00  0.00    -0.774 OA
HETATM   29  H   UNK N   1      81.984  24.876   8.289  0.00  0.00     0.167 HD
ENDBRANCH  26  28
ENDBRANCH   1  26
BRANCH   6  30
HETATM   30  O   UNK N   1      83.681  29.744   7.149  0.00  0.00    -0.393 OA
HETATM   31  H   UNK N   1      82.717  29.636   6.937  0.00  0.00     0.210 HD
ENDBRANCH   6  30
TORSDOF 11
ENDMDL
MODEL 9
REMARK VINA RESULT:      -5.2     15.687     19.685
REMARK  11 active torsions:
REMARK  status: ('A' for Active; 'I' for Inactive)
REMARK    1  A    between atoms: O_1  and  C_11 
REMARK    2  A    between atoms: O_1  and  C_17 
REMARK    3  A    between atoms: C_10  and  O_2 
REMARK    4  A    between atoms: O_3  and  C_14 
REMARK    5  A    between atoms: O_4  and  C_15 
REMARK    6  A    between atoms: O_5  and  C_16 
REMARK    7  A    between atoms: O_8  and  C_23 
REMARK    8  A    between atoms: O_9  and  C_25 
REMARK    9  A    between atoms: C_10  and  C_16 
REMARK   10  A    between atoms: C_17  and  C_18 
REMARK   11  A    between atoms: C_19  and  C_20 
ROOT
HETATM    1  C   UNK N   1      80.142  28.187   4.728  0.00  0.00     0.147 C 
HETATM    2  C   UNK N   1      81.393  25.946   4.657  0.00  0.00     0.166 C 
HETATM    3  C   UNK N   1      81.299  27.383   4.087  0.00  0.00     0.084 C 
HETATM    4  C   UNK N   1      80.355  28.230   6.259  0.00  0.00     0.083 C 
HETATM    5  C   UNK N   1      81.576  26.012   6.191  0.00  0.00     0.176 C 
HETATM    6  C   UNK N   1      80.438  26.811   6.864  0.00  0.00     0.152 C 
ENDROOT
BRANCH   2   7
HETATM    7  O   UNK N   1      82.486  25.302   4.101  0.00  0.00    -0.310 OA
BRANCH   7   8
HETATM    8  C   UNK N   1      82.395  24.199   3.310  0.00  0.00     0.283 C 
HETATM    9  O   UNK N   1      82.226  24.309   2.105  0.00  0.00    -0.260 OA
BRANCH   8  10
HETATM   10  C   UNK N   1      82.655  22.879   3.921  0.00  0.00     0.083 C 
HETATM   11  C   UNK N   1      83.910  22.437   4.138  0.00  0.00     0.017 C 
BRANCH  11  12
HETATM   12  C   UNK N   1      84.237  21.186   4.881  0.00  0.00    -0.033 A 
HETATM   13  C   UNK N   1      83.460  20.045   4.624  0.00  0.00     0.050 A 
HETATM   14  C   UNK N   1      83.744  18.820   5.238  0.00  0.00     0.099 A 
HETATM   15  C   UNK N   1      84.823  18.732   6.152  0.00  0.00     0.098 A 
HETATM   16  C   UNK N   1      85.593  19.870   6.415  0.00  0.00     0.040 A 
HETATM   17  C   UNK N   1      85.312  21.084   5.788  0.00  0.00     0.014 A 
BRANCH  14  18
HETATM   18  O   UNK N   1      82.975  17.754   4.919  0.00  0.00    -0.358 OA
HETATM   19  H   UNK N   1      83.301  16.849   4.858  0.00  0.00     0.218 HD
ENDBRANCH  14  18
BRANCH  15  20
HETATM   20  O   UNK N   1      85.146  17.582   6.784  0.00  0.00    -0.358 OA
HETATM   21  H   UNK N   1      85.830  17.508   7.460  0.00  0.00     0.218 HD
ENDBRANCH  15  20
ENDBRANCH  11  12
ENDBRANCH   8  10
ENDBRANCH   7   8
ENDBRANCH   2   7
BRANCH   5  22
HETATM   22  O   UNK N   1      81.616  24.716   6.731  0.00  0.00    -0.390 OA
HETATM   23  H   UNK N   1      81.507  24.083   5.975  0.00  0.00     0.210 HD
ENDBRANCH   5  22
BRANCH   1  24
HETATM   24  O   UNK N   1      78.905  27.568   4.457  0.00  0.00    -0.379 OA
HETATM   25  H   UNK N   1      78.516  27.263   5.320  0.00  0.00     0.211 HD
ENDBRANCH   1  24
BRANCH   1  26
HETATM   26  C   UNK N   1      80.144  29.602   4.181  0.00  0.00     0.176 C 
HETATM   27  O   UNK N   1      79.175  30.030   3.569  0.00  0.00    -0.648 OA
BRANCH  26  28
HETATM   28  O   UNK N   1      81.226  30.391   4.357  0.00  0.00    -0.774 OA
HETATM   29  H   UNK N   1      81.632  30.496   5.229  0.00  0.00     0.167 HD
ENDBRANCH  26  28
ENDBRANCH   1  26
BRANCH   6  30
HETATM   30  O   UNK N   1      79.218  26.133   6.705  0.00  0.00    -0.393 OA
HETATM   31  H   UNK N   1      79.000  25.732   7.586  0.00  0.00     0.210 HD
ENDBRANCH   6  30
TORSDOF 11
ENDMDL
