MODEL 1
REMARK VINA RESULT:      -4.3      0.000      0.000
REMARK  0 active torsions:
REMARK  status: ('A' for Active; 'I' for Inactive)
ROOT
HETATM    1  O   UNK N   1      74.086  39.255  -3.482  0.00  0.00    -0.265 OA
HETATM    2  O   UNK N   1      76.357  38.947   0.437  0.00  0.00    -0.246 OA
HETATM    3  N   UNK N   1      76.111  37.065  -0.796  0.00  0.00    -0.287 N 
HETATM    4  N   UNK N   1      75.211  39.196  -1.502  0.00  0.00    -0.269 N 
HETATM    5  N   UNK N   1      74.545  36.446  -3.850  0.00  0.00    -0.345 N 
HETATM    6  N   UNK N   1      75.685  35.242  -2.326  0.00  0.00    -0.336 N 
ATOM      7  HN  UNK N   1      76.138  34.465  -1.846  1.00  0.00     0.168 HD
HETATM    8  C   UNK N   1      75.602  36.526  -1.932  0.00  0.00     0.145 A 
HETATM    9  C   UNK N   1      74.919  37.250  -2.843  0.00  0.00     0.147 A 
HETATM   10  C   UNK N   1      74.704  38.606  -2.655  0.00  0.00     0.281 A 
HETATM   11  C   UNK N   1      75.914  38.424  -0.575  0.00  0.00     0.332 A 
HETATM   12  C   UNK N   1      76.843  36.216   0.150  0.00  0.00     0.163 C 
HETATM   13  C   UNK N   1      75.024  40.630  -1.232  0.00  0.00     0.164 C 
HETATM   14  C   UNK N   1      75.024  35.223  -3.512  0.00  0.00     0.182 A 
HETATM   15  H   UNK N   1      74.005  36.694  -4.708  0.00  0.00     0.167 HD
ENDROOT
TORSDOF 0
ENDMDL
MODEL 2
REMARK VINA RESULT:      -4.3      1.538      3.138
REMARK  0 active torsions:
REMARK  status: ('A' for Active; 'I' for Inactive)
ROOT
HETATM    1  O   UNK N   1      76.988  34.681  -0.361  0.00  0.00    -0.265 OA
HETATM    2  O   UNK N   1      76.353  39.083   0.553  0.00  0.00    -0.246 OA
HETATM    3  N   UNK N   1      75.436  38.251  -1.341  0.00  0.00    -0.287 N 
HETATM    4  N   UNK N   1      76.722  36.878   0.179  0.00  0.00    -0.269 N 
HETATM    5  N   UNK N   1      75.446  35.061  -2.751  0.00  0.00    -0.345 N 
HETATM    6  N   UNK N   1      74.586  37.075  -3.276  0.00  0.00    -0.336 N 
ATOM      7  HN  UNK N   1      74.091  37.821  -3.764  1.00  0.00     0.168 HD
HETATM    8  C   UNK N   1      75.265  37.151  -2.116  0.00  0.00     0.145 A 
HETATM    9  C   UNK N   1      75.781  35.945  -1.799  0.00  0.00     0.147 A 
HETATM   10  C   UNK N   1      76.525  35.774  -0.642  0.00  0.00     0.281 A 
HETATM   11  C   UNK N   1      76.177  38.115  -0.172  0.00  0.00     0.332 A 
HETATM   12  C   UNK N   1      74.845  39.530  -1.749  0.00  0.00     0.163 C 
HETATM   13  C   UNK N   1      77.499  36.776   1.424  0.00  0.00     0.164 C 
HETATM   14  C   UNK N   1      74.715  35.775  -3.643  0.00  0.00     0.182 A 
HETATM   15  H   UNK N   1      75.687  34.046  -2.805  0.00  0.00     0.167 HD
ENDROOT
TORSDOF 0
ENDMDL
MODEL 3
REMARK VINA RESULT:      -4.2     37.054     37.631
REMARK  0 active torsions:
REMARK  status: ('A' for Active; 'I' for Inactive)
ROOT
HETATM    1  O   UNK N   1      50.958  15.312  17.100  0.00  0.00    -0.265 OA
HETATM    2  O   UNK N   1      48.133  18.864  16.968  0.00  0.00    -0.246 OA
HETATM    3  N   UNK N   1      48.589  17.799  15.024  0.00  0.00    -0.287 N 
HETATM    4  N   UNK N   1      49.552  17.104  17.131  0.00  0.00    -0.269 N 
HETATM    5  N   UNK N   1      50.601  15.054  14.265  0.00  0.00    -0.345 N 
HETATM    6  N   UNK N   1      49.266  16.463  13.125  0.00  0.00    -0.336 N 
ATOM      7  HN  UNK N   1      48.758  16.918  12.367  1.00  0.00     0.168 HD
HETATM    8  C   UNK N   1      49.269  16.786  14.432  0.00  0.00     0.145 A 
HETATM    9  C   UNK N   1      50.069  15.943  15.117  0.00  0.00     0.147 A 
HETATM   10  C   UNK N   1      50.234  16.078  16.486  0.00  0.00     0.281 A 
HETATM   11  C   UNK N   1      48.731  17.963  16.398  0.00  0.00     0.332 A 
HETATM   12  C   UNK N   1      47.737  18.677  14.214  0.00  0.00     0.163 C 
HETATM   13  C   UNK N   1      49.675  17.311  18.582  0.00  0.00     0.164 C 
HETATM   14  C   UNK N   1      50.096  15.392  13.052  0.00  0.00     0.182 A 
HETATM   15  H   UNK N   1      51.260  14.271  14.475  0.00  0.00     0.167 HD
ENDROOT
TORSDOF 0
ENDMDL
MODEL 4
REMARK VINA RESULT:      -4.1     11.556     13.475
REMARK  0 active torsions:
REMARK  status: ('A' for Active; 'I' for Inactive)
ROOT
HETATM    1  O   UNK N   1      78.822  29.015   4.809  0.00  0.00    -0.265 OA
HETATM    2  O   UNK N   1      83.269  29.717   4.223  0.00  0.00    -0.246 OA
HETATM    3  N   UNK N   1      82.632  27.927   5.450  0.00  0.00    -0.287 N 
HETATM    4  N   UNK N   1      81.031  29.447   4.461  0.00  0.00    -0.269 N 
HETATM    5  N   UNK N   1      79.497  26.697   6.360  0.00  0.00    -0.345 N 
HETATM    6  N   UNK N   1      81.644  26.110   6.705  0.00  0.00    -0.336 N 
ATOM      7  HN  UNK N   1      82.473  25.610   7.023  1.00  0.00     0.168 HD
HETATM    8  C   UNK N   1      81.585  27.224   5.952  0.00  0.00     0.145 A 
HETATM    9  C   UNK N   1      80.300  27.578   5.744  0.00  0.00     0.147 A 
HETATM   10  C   UNK N   1      79.986  28.700   4.993  0.00  0.00     0.281 A 
HETATM   11  C   UNK N   1      82.353  29.058   4.691  0.00  0.00     0.332 A 
HETATM   12  C   UNK N   1      84.004  27.481   5.718  0.00  0.00     0.163 C 
HETATM   13  C   UNK N   1      80.779  30.649   3.653  0.00  0.00     0.164 C 
HETATM   14  C   UNK N   1      80.342  25.808   6.941  0.00  0.00     0.182 A 
HETATM   15  H   UNK N   1      78.454  26.687   6.393  0.00  0.00     0.167 HD
ENDROOT
TORSDOF 0
ENDMDL
MODEL 5
REMARK VINA RESULT:      -4.1     37.318     37.860
REMARK  0 active torsions:
REMARK  status: ('A' for Active; 'I' for Inactive)
ROOT
HETATM    1  O   UNK N   1      47.340  18.189  14.235  0.00  0.00    -0.265 OA
HETATM    2  O   UNK N   1      48.979  17.012  18.303  0.00  0.00    -0.246 OA
HETATM    3  N   UNK N   1      49.868  16.020  16.474  0.00  0.00    -0.287 N 
HETATM    4  N   UNK N   1      48.099  17.661  16.317  0.00  0.00    -0.269 N 
HETATM    5  N   UNK N   1      49.202  16.345  13.067  0.00  0.00    -0.345 N 
HETATM    6  N   UNK N   1      50.609  15.140  14.347  0.00  0.00    -0.336 N 
ATOM      7  HN  UNK N   1      51.335  14.487  14.640  1.00  0.00     0.168 HD
HETATM    8  C   UNK N   1      49.840  15.928  15.121  0.00  0.00     0.145 A 
HETATM    9  C   UNK N   1      48.996  16.650  14.356  0.00  0.00     0.147 A 
HETATM   10  C   UNK N   1      48.101  17.538  14.932  0.00  0.00     0.281 A 
HETATM   11  C   UNK N   1      48.983  16.901  17.086  0.00  0.00     0.332 A 
HETATM   12  C   UNK N   1      50.815  15.202  17.241  0.00  0.00     0.163 C 
HETATM   13  C   UNK N   1      47.180  18.583  17.002  0.00  0.00     0.164 C 
HETATM   14  C   UNK N   1      50.193  15.419  13.085  0.00  0.00     0.182 A 
HETATM   15  H   UNK N   1      48.714  16.727  12.226  0.00  0.00     0.167 HD
ENDROOT
TORSDOF 0
ENDMDL
MODEL 6
REMARK VINA RESULT:      -4.1     11.744     13.872
REMARK  0 active torsions:
REMARK  status: ('A' for Active; 'I' for Inactive)
ROOT
HETATM    1  O   UNK N   1      80.326  27.326   7.243  0.00  0.00    -0.265 OA
HETATM    2  O   UNK N   1      82.597  25.310   3.867  0.00  0.00    -0.246 OA
HETATM    3  N   UNK N   1      81.018  26.835   3.320  0.00  0.00    -0.287 N 
HETATM    4  N   UNK N   1      81.516  26.264   5.616  0.00  0.00    -0.269 N 
HETATM    5  N   UNK N   1      78.873  28.793   5.251  0.00  0.00    -0.345 N 
HETATM    6  N   UNK N   1      79.281  28.498   3.056  0.00  0.00    -0.336 N 
ATOM      7  HN  UNK N   1      79.236  28.584   2.041  1.00  0.00     0.168 HD
HETATM    8  C   UNK N   1      80.085  27.703   3.786  0.00  0.00     0.145 A 
HETATM    9  C   UNK N   1      79.842  27.878   5.102  0.00  0.00     0.147 A 
HETATM   10  C   UNK N   1      80.550  27.163   6.055  0.00  0.00     0.281 A 
HETATM   11  C   UNK N   1      81.748  26.101   4.249  0.00  0.00     0.332 A 
HETATM   12  C   UNK N   1      81.227  26.698   1.874  0.00  0.00     0.163 C 
HETATM   13  C   UNK N   1      82.309  25.469   6.567  0.00  0.00     0.164 C 
HETATM   14  C   UNK N   1      78.546  29.158   3.986  0.00  0.00     0.182 A 
HETATM   15  H   UNK N   1      78.454  29.153   6.137  0.00  0.00     0.167 HD
ENDROOT
TORSDOF 0
ENDMDL
MODEL 7
REMARK VINA RESULT:      -4.1      8.117     10.368
REMARK  0 active torsions:
REMARK  status: ('A' for Active; 'I' for Inactive)
ROOT
HETATM    1  O   UNK N   1      76.653  28.450  -5.200  0.00  0.00    -0.265 OA
HETATM    2  O   UNK N   1      79.313  28.567  -8.878  0.00  0.00    -0.246 OA
HETATM    3  N   UNK N   1      78.437  30.519  -8.142  0.00  0.00    -0.287 N 
HETATM    4  N   UNK N   1      77.999  28.411  -7.038  0.00  0.00    -0.269 N 
HETATM    5  N   UNK N   1      76.347  31.291  -5.458  0.00  0.00    -0.345 N 
HETATM    6  N   UNK N   1      77.359  32.427  -7.119  0.00  0.00    -0.336 N 
ATOM      7  HN  UNK N   1      77.670  33.184  -7.726  1.00  0.00     0.168 HD
HETATM    8  C   UNK N   1      77.653  31.117  -7.210  0.00  0.00     0.145 A 
HETATM    9  C   UNK N   1      77.048  30.434  -6.215  0.00  0.00     0.147 A 
HETATM   10  C   UNK N   1      77.203  29.062  -6.101  0.00  0.00     0.281 A 
HETATM   11  C   UNK N   1      78.614  29.142  -8.057  0.00  0.00     0.332 A 
HETATM   12  C   UNK N   1      79.063  31.326  -9.194  0.00  0.00     0.163 C 
HETATM   13  C   UNK N   1      78.213  26.957  -6.983  0.00  0.00     0.164 C 
HETATM   14  C   UNK N   1      76.553  32.504  -6.030  0.00  0.00     0.182 A 
HETATM   15  H   UNK N   1      75.768  31.084  -4.614  0.00  0.00     0.167 HD
ENDROOT
TORSDOF 0
ENDMDL
MODEL 8
REMARK VINA RESULT:      -3.9     11.385     13.361
REMARK  0 active torsions:
REMARK  status: ('A' for Active; 'I' for Inactive)
ROOT
HETATM    1  O   UNK N   1      80.780  26.661   1.709  0.00  0.00    -0.265 OA
HETATM    2  O   UNK N   1      82.658  26.274   5.825  0.00  0.00    -0.246 OA
HETATM    3  N   UNK N   1      80.824  27.583   5.616  0.00  0.00    -0.287 N 
HETATM    4  N   UNK N   1      81.790  26.407   3.736  0.00  0.00    -0.269 N 
HETATM    5  N   UNK N   1      78.821  28.400   2.881  0.00  0.00    -0.345 N 
HETATM    6  N   UNK N   1      78.869  28.900   5.076  0.00  0.00    -0.336 N 
ATOM      7  HN  UNK N   1      78.634  29.296   5.986  1.00  0.00     0.168 HD
HETATM    8  C   UNK N   1      79.885  28.072   4.769  0.00  0.00     0.145 A 
HETATM    9  C   UNK N   1      79.858  27.771   3.453  0.00  0.00     0.147 A 
HETATM   10  C   UNK N   1      80.810  26.930   2.899  0.00  0.00     0.281 A 
HETATM   11  C   UNK N   1      81.795  26.735   5.093  0.00  0.00     0.332 A 
HETATM   12  C   UNK N   1      80.790  27.954   7.035  0.00  0.00     0.163 C 
HETATM   13  C   UNK N   1      82.833  25.507   3.222  0.00  0.00     0.164 C 
HETATM   14  C   UNK N   1      78.230  29.084   3.892  0.00  0.00     0.182 A 
HETATM   15  H   UNK N   1      78.523  28.376   1.880  0.00  0.00     0.167 HD
ENDROOT
TORSDOF 0
ENDMDL
MODEL 9
REMARK VINA RESULT:      -3.9     12.755     14.833
REMARK  0 active torsions:
REMARK  status: ('A' for Active; 'I' for Inactive)
ROOT
HETATM    1  O   UNK N   1      80.036  29.131   5.252  0.00  0.00    -0.265 OA
HETATM    2  O   UNK N   1      81.836  25.324   3.555  0.00  0.00    -0.246 OA
HETATM    3  N   UNK N   1      82.145  25.753   5.755  0.00  0.00    -0.287 N 
HETATM    4  N   UNK N   1      80.903  27.245   4.313  0.00  0.00    -0.269 N 
HETATM    5  N   UNK N   1      81.122  28.386   7.801  0.00  0.00    -0.345 N 
HETATM    6  N   UNK N   1      82.302  26.485   8.055  0.00  0.00    -0.336 N 
ATOM      7  HN  UNK N   1      82.849  25.732   8.470  1.00  0.00     0.168 HD
HETATM    8  C   UNK N   1      81.901  26.612   6.776  0.00  0.00     0.145 A 
HETATM    9  C   UNK N   1      81.194  27.751   6.622  0.00  0.00     0.147 A 
HETATM   10  C   UNK N   1      80.674  28.101   5.385  0.00  0.00     0.281 A 
HETATM   11  C   UNK N   1      81.638  26.073   4.500  0.00  0.00     0.332 A 
HETATM   12  C   UNK N   1      82.923  24.533   5.999  0.00  0.00     0.163 C 
HETATM   13  C   UNK N   1      80.383  27.547   2.970  0.00  0.00     0.164 C 
HETATM   14  C   UNK N   1      81.807  27.593   8.663  0.00  0.00     0.182 A 
HETATM   15  H   UNK N   1      80.648  29.290   8.021  0.00  0.00     0.167 HD
ENDROOT
TORSDOF 0
ENDMDL
