MODEL 1
REMARK VINA RESULT:      -5.4      0.000      0.000
REMARK  7 active torsions:
REMARK  status: ('A' for Active; 'I' for Inactive)
REMARK    1  A    between atoms: O_1  and  C_22 
REMARK    2  A    between atoms: C_6  and  C_13 
REMARK    3  A    between atoms: C_13  and  C_20 
REMARK    4  A    between atoms: C_20  and  C_24 
REMARK    5  A    between atoms: C_24  and  C_25 
REMARK    6  A    between atoms: C_25  and  C_26 
REMARK    7  A    between atoms: C_25  and  C_27 
ROOT
HETATM    1  C   UNK N   1      78.368  38.373   5.464  0.00  0.00    -0.036 C 
HETATM    2  C   UNK N   1      78.068  37.073   6.244  0.00  0.00    -0.001 C 
HETATM    3  C   UNK N   1      78.694  37.057   7.664  0.00  0.00    -0.001 C 
HETATM    4  C   UNK N   1      78.178  38.271   8.474  0.00  0.00     0.003 C 
HETATM    5  C   UNK N   1      77.667  38.030   4.117  0.00  0.00    -0.002 C 
HETATM    6  C   UNK N   1      77.712  39.525   6.282  0.00  0.00     0.010 C 
HETATM    7  C   UNK N   1      78.856  38.320   9.902  0.00  0.00    -0.017 C 
HETATM    8  C   UNK N   1      78.457  35.972   5.271  0.00  0.00     0.006 C 
HETATM    9  C   UNK N   1      78.313  39.612   7.691  0.00  0.00     0.007 C 
HETATM   10  C   UNK N   1      78.044  36.534   3.895  0.00  0.00     0.006 C 
HETATM   11  C   UNK N   1      78.309  35.759   8.401  0.00  0.00     0.033 C 
HETATM   12  C   UNK N   1      79.892  38.633   5.225  0.00  0.00     0.016 C 
HETATM   13  C   UNK N   1      78.873  36.932  10.559  0.00  0.00    -0.072 C 
HETATM   14  C   UNK N   1      77.995  39.263  10.803  0.00  0.00     0.016 C 
HETATM   15  C   UNK N   1      78.594  35.797   9.879  0.00  0.00    -0.023 C 
HETATM   16  C   UNK N   1      80.325  38.830   9.840  0.00  0.00     0.020 C 
HETATM   17  C   UNK N   1      79.205  36.854  12.039  0.00  0.00     0.066 C 
HETATM   18  C   UNK N   1      78.391  39.225  12.287  0.00  0.00     0.033 C 
HETATM   19  C   UNK N   1      78.282  37.791  12.834  0.00  0.00     0.122 C 
ENDROOT
BRANCH   5  20
HETATM   20  C   UNK N   1      77.906  38.925   2.851  0.00  0.00    -0.014 C 
HETATM   21  C   UNK N   1      76.655  39.739   2.473  0.00  0.00     0.010 C 
BRANCH  20  22
HETATM   22  C   UNK N   1      78.369  38.043   1.655  0.00  0.00     0.005 C 
BRANCH  22  23
HETATM   23  C   UNK N   1      77.875  38.497   0.261  0.00  0.00     0.005 C 
BRANCH  23  24
HETATM   24  C   UNK N   1      76.961  37.486  -0.502  0.00  0.00    -0.012 C 
BRANCH  24  25
HETATM   25  C   UNK N   1      75.623  38.144  -0.995  0.00  0.00    -0.019 C 
HETATM   26  C   UNK N   1      75.081  37.479  -2.275  0.00  0.00     0.010 C 
HETATM   27  C   UNK N   1      75.719  39.664  -1.200  0.00  0.00     0.010 C 
ENDBRANCH  24  25
BRANCH  24  28
HETATM   28  C   UNK N   1      76.731  36.215   0.366  0.00  0.00     0.000 C 
HETATM   29  C   UNK N   1      77.066  34.896  -0.334  0.00  0.00     0.005 C 
ENDBRANCH  24  28
ENDBRANCH  23  24
ENDBRANCH  22  23
ENDBRANCH  20  22
ENDBRANCH   5  20
BRANCH  19  30
HETATM   30  O   UNK N   1      78.645  37.794  14.189  0.00  0.00    -0.395 OA
HETATM   31  H   UNK N   1      79.538  37.366  14.248  0.00  0.00     0.210 HD
ENDBRANCH  19  30
TORSDOF 7
ENDMDL
MODEL 2
REMARK VINA RESULT:      -5.4      1.723      3.464
REMARK  7 active torsions:
REMARK  status: ('A' for Active; 'I' for Inactive)
REMARK    1  A    between atoms: O_1  and  C_22 
REMARK    2  A    between atoms: C_6  and  C_13 
REMARK    3  A    between atoms: C_13  and  C_20 
REMARK    4  A    between atoms: C_20  and  C_24 
REMARK    5  A    between atoms: C_24  and  C_25 
REMARK    6  A    between atoms: C_25  and  C_26 
REMARK    7  A    between atoms: C_25  and  C_27 
ROOT
HETATM    1  C   UNK N   1      77.572  39.189   2.262  0.00  0.00    -0.036 C 
HETATM    2  C   UNK N   1      77.413  37.759   2.825  0.00  0.00    -0.001 C 
HETATM    3  C   UNK N   1      78.170  37.542   4.162  0.00  0.00    -0.001 C 
HETATM    4  C   UNK N   1      77.675  38.566   5.213  0.00  0.00     0.003 C 
HETATM    5  C   UNK N   1      76.763  39.035   0.942  0.00  0.00    -0.002 C 
HETATM    6  C   UNK N   1      76.941  40.140   3.323  0.00  0.00     0.010 C 
HETATM    7  C   UNK N   1      78.483  38.415   6.565  0.00  0.00    -0.017 C 
HETATM    8  C   UNK N   1      77.761  36.867   1.645  0.00  0.00     0.006 C 
HETATM    9  C   UNK N   1      77.668  40.025   4.669  0.00  0.00     0.007 C 
HETATM   10  C   UNK N   1      77.191  37.627   0.429  0.00  0.00     0.006 C 
HETATM   11  C   UNK N   1      77.922  36.116   4.690  0.00  0.00     0.033 C 
HETATM   12  C   UNK N   1      79.052  39.584   1.944  0.00  0.00     0.016 C 
HETATM   13  C   UNK N   1      78.631  36.940   6.964  0.00  0.00    -0.072 C 
HETATM   14  C   UNK N   1      77.666  39.133   7.687  0.00  0.00     0.016 C 
HETATM   15  C   UNK N   1      78.345  35.920   6.122  0.00  0.00    -0.023 C 
HETATM   16  C   UNK N   1      79.912  39.023   6.468  0.00  0.00     0.020 C 
HETATM   17  C   UNK N   1      79.106  36.633   8.374  0.00  0.00     0.066 C 
HETATM   18  C   UNK N   1      78.204  38.869   9.102  0.00  0.00     0.033 C 
HETATM   19  C   UNK N   1      78.218  37.359   9.397  0.00  0.00     0.122 C 
ENDROOT
BRANCH   5  20
HETATM   20  C   UNK N   1      76.836  40.146  -0.164  0.00  0.00    -0.014 C 
HETATM   21  C   UNK N   1      75.467  40.805  -0.413  0.00  0.00     0.010 C 
BRANCH  20  22
HETATM   22  C   UNK N   1      77.406  39.548  -1.484  0.00  0.00     0.005 C 
BRANCH  22  23
HETATM   23  C   UNK N   1      76.445  39.574  -2.697  0.00  0.00     0.005 C 
BRANCH  23  24
HETATM   24  C   UNK N   1      76.177  38.198  -3.385  0.00  0.00    -0.012 C 
BRANCH  24  25
HETATM   25  C   UNK N   1      75.102  37.347  -2.620  0.00  0.00    -0.019 C 
HETATM   26  C   UNK N   1      74.722  36.063  -3.381  0.00  0.00     0.010 C 
HETATM   27  C   UNK N   1      73.832  38.133  -2.259  0.00  0.00     0.010 C 
ENDBRANCH  24  25
BRANCH  24  28
HETATM   28  C   UNK N   1      77.518  37.437  -3.597  0.00  0.00     0.000 C 
HETATM   29  C   UNK N   1      77.946  37.298  -5.059  0.00  0.00     0.005 C 
ENDBRANCH  24  28
ENDBRANCH  23  24
ENDBRANCH  22  23
ENDBRANCH  20  22
ENDBRANCH   5  20
BRANCH  19  30
HETATM   30  O   UNK N   1      78.708  37.155  10.695  0.00  0.00    -0.395 OA
HETATM   31  H   UNK N   1      79.016  36.213  10.742  0.00  0.00     0.210 HD
ENDBRANCH  19  30
TORSDOF 7
ENDMDL
MODEL 3
REMARK VINA RESULT:      -5.3      2.275      3.789
REMARK  7 active torsions:
REMARK  status: ('A' for Active; 'I' for Inactive)
REMARK    1  A    between atoms: O_1  and  C_22 
REMARK    2  A    between atoms: C_6  and  C_13 
REMARK    3  A    between atoms: C_13  and  C_20 
REMARK    4  A    between atoms: C_20  and  C_24 
REMARK    5  A    between atoms: C_24  and  C_25 
REMARK    6  A    between atoms: C_25  and  C_26 
REMARK    7  A    between atoms: C_25  and  C_27 
ROOT
HETATM    1  C   UNK N   1      78.328  38.279   5.316  0.00  0.00    -0.036 C 
HETATM    2  C   UNK N   1      78.090  37.342   6.521  0.00  0.00    -0.001 C 
HETATM    3  C   UNK N   1      78.416  38.008   7.884  0.00  0.00    -0.001 C 
HETATM    4  C   UNK N   1      77.563  39.289   8.055  0.00  0.00     0.003 C 
HETATM    5  C   UNK N   1      77.972  37.302   4.158  0.00  0.00    -0.002 C 
HETATM    6  C   UNK N   1      77.348  39.476   5.503  0.00  0.00     0.010 C 
HETATM    7  C   UNK N   1      77.928  40.029   9.405  0.00  0.00    -0.017 C 
HETATM    8  C   UNK N   1      78.834  36.072   6.142  0.00  0.00     0.006 C 
HETATM    9  C   UNK N   1      77.636  40.224   6.811  0.00  0.00     0.007 C 
HETATM   10  C   UNK N   1      78.619  35.960   4.618  0.00  0.00     0.006 C 
HETATM   11  C   UNK N   1      78.104  37.037   9.040  0.00  0.00     0.033 C 
HETATM   12  C   UNK N   1      79.809  38.765   5.173  0.00  0.00     0.016 C 
HETATM   13  C   UNK N   1      78.034  39.037  10.572  0.00  0.00    -0.072 C 
HETATM   14  C   UNK N   1      76.766  41.023   9.729  0.00  0.00     0.016 C 
HETATM   15  C   UNK N   1      78.080  37.697  10.394  0.00  0.00    -0.023 C 
HETATM   16  C   UNK N   1      79.280  40.794   9.311  0.00  0.00     0.020 C 
HETATM   17  C   UNK N   1      78.075  39.604  11.981  0.00  0.00     0.066 C 
HETATM   18  C   UNK N   1      76.861  41.642  11.132  0.00  0.00     0.033 C 
HETATM   19  C   UNK N   1      76.875  40.539  12.204  0.00  0.00     0.122 C 
ENDROOT
BRANCH   5  20
HETATM   20  C   UNK N   1      78.312  37.677   2.674  0.00  0.00    -0.014 C 
HETATM   21  C   UNK N   1      77.087  38.230   1.922  0.00  0.00     0.010 C 
BRANCH  20  22
HETATM   22  C   UNK N   1      78.900  36.441   1.932  0.00  0.00     0.005 C 
BRANCH  22  23
HETATM   23  C   UNK N   1      80.353  36.598   1.423  0.00  0.00     0.005 C 
BRANCH  23  24
HETATM   24  C   UNK N   1      81.401  35.617   2.036  0.00  0.00    -0.012 C 
BRANCH  24  25
HETATM   25  C   UNK N   1      80.809  34.182   2.275  0.00  0.00    -0.019 C 
HETATM   26  C   UNK N   1      81.231  33.593   3.634  0.00  0.00     0.010 C 
HETATM   27  C   UNK N   1      81.133  33.184   1.152  0.00  0.00     0.010 C 
ENDBRANCH  24  25
BRANCH  24  28
HETATM   28  C   UNK N   1      82.028  36.237   3.319  0.00  0.00     0.000 C 
HETATM   29  C   UNK N   1      82.676  37.607   3.112  0.00  0.00     0.005 C 
ENDBRANCH  24  28
ENDBRANCH  23  24
ENDBRANCH  22  23
ENDBRANCH  20  22
ENDBRANCH   5  20
BRANCH  19  30
HETATM   30  O   UNK N   1      76.957  41.138  13.470  0.00  0.00    -0.395 OA
HETATM   31  H   UNK N   1      76.901  40.407  14.138  0.00  0.00     0.210 HD
ENDBRANCH  19  30
TORSDOF 7
ENDMDL
MODEL 4
REMARK VINA RESULT:      -5.3      1.719      2.168
REMARK  7 active torsions:
REMARK  status: ('A' for Active; 'I' for Inactive)
REMARK    1  A    between atoms: O_1  and  C_22 
REMARK    2  A    between atoms: C_6  and  C_13 
REMARK    3  A    between atoms: C_13  and  C_20 
REMARK    4  A    between atoms: C_20  and  C_24 
REMARK    5  A    between atoms: C_24  and  C_25 
REMARK    6  A    between atoms: C_25  and  C_26 
REMARK    7  A    between atoms: C_25  and  C_27 
ROOT
HETATM    1  C   UNK N   1      78.309  38.340   5.167  0.00  0.00    -0.036 C 
HETATM    2  C   UNK N   1      78.113  37.382   6.363  0.00  0.00    -0.001 C 
HETATM    3  C   UNK N   1      78.419  38.045   7.732  0.00  0.00    -0.001 C 
HETATM    4  C   UNK N   1      77.519  39.291   7.920  0.00  0.00     0.003 C 
HETATM    5  C   UNK N   1      77.985  37.362   4.001  0.00  0.00    -0.002 C 
HETATM    6  C   UNK N   1      77.284  39.496   5.371  0.00  0.00     0.010 C 
HETATM    7  C   UNK N   1      77.861  40.029   9.276  0.00  0.00    -0.017 C 
HETATM    8  C   UNK N   1      78.904  36.146   5.967  0.00  0.00     0.006 C 
HETATM    9  C   UNK N   1      77.549  40.241   6.686  0.00  0.00     0.007 C 
HETATM   10  C   UNK N   1      78.685  36.042   4.443  0.00  0.00     0.006 C 
HETATM   11  C   UNK N   1      78.151  37.051   8.878  0.00  0.00     0.033 C 
HETATM   12  C   UNK N   1      79.769  38.884   5.022  0.00  0.00     0.016 C 
HETATM   13  C   UNK N   1      78.012  39.030  10.432  0.00  0.00    -0.072 C 
HETATM   14  C   UNK N   1      76.664  40.974   9.616  0.00  0.00     0.016 C 
HETATM   15  C   UNK N   1      78.108  37.695  10.239  0.00  0.00    -0.023 C 
HETATM   16  C   UNK N   1      79.182  40.847   9.184  0.00  0.00     0.020 C 
HETATM   17  C   UNK N   1      78.037  39.584  11.846  0.00  0.00     0.066 C 
HETATM   18  C   UNK N   1      76.742  41.582  11.025  0.00  0.00     0.033 C 
HETATM   19  C   UNK N   1      76.803  40.469  12.085  0.00  0.00     0.122 C 
ENDROOT
BRANCH   5  20
HETATM   20  C   UNK N   1      78.303  37.766   2.519  0.00  0.00    -0.014 C 
HETATM   21  C   UNK N   1      77.025  38.070   1.715  0.00  0.00     0.010 C 
BRANCH  20  22
HETATM   22  C   UNK N   1      79.133  36.645   1.827  0.00  0.00     0.005 C 
BRANCH  22  23
HETATM   23  C   UNK N   1      79.660  36.983   0.412  0.00  0.00     0.005 C 
BRANCH  23  24
HETATM   24  C   UNK N   1      79.151  36.064  -0.744  0.00  0.00    -0.012 C 
BRANCH  24  25
HETATM   25  C   UNK N   1      78.471  36.879  -1.900  0.00  0.00    -0.019 C 
HETATM   26  C   UNK N   1      79.059  36.537  -3.282  0.00  0.00     0.010 C 
HETATM   27  C   UNK N   1      78.499  38.401  -1.685  0.00  0.00     0.010 C 
ENDBRANCH  24  25
BRANCH  24  28
HETATM   28  C   UNK N   1      78.237  34.942  -0.171  0.00  0.00     0.000 C 
HETATM   29  C   UNK N   1      76.761  35.066  -0.553  0.00  0.00     0.005 C 
ENDBRANCH  24  28
ENDBRANCH  23  24
ENDBRANCH  22  23
ENDBRANCH  20  22
ENDBRANCH   5  20
BRANCH  19  30
HETATM   30  O   UNK N   1      76.868  41.058  13.357  0.00  0.00    -0.395 OA
HETATM   31  H   UNK N   1      76.735  40.330  14.018  0.00  0.00     0.210 HD
ENDBRANCH  19  30
TORSDOF 7
ENDMDL
MODEL 5
REMARK VINA RESULT:      -5.3     15.665     18.510
REMARK  7 active torsions:
REMARK  status: ('A' for Active; 'I' for Inactive)
REMARK    1  A    between atoms: O_1  and  C_22 
REMARK    2  A    between atoms: C_6  and  C_13 
REMARK    3  A    between atoms: C_13  and  C_20 
REMARK    4  A    between atoms: C_20  and  C_24 
REMARK    5  A    between atoms: C_24  and  C_25 
REMARK    6  A    between atoms: C_25  and  C_26 
REMARK    7  A    between atoms: C_25  and  C_27 
ROOT
HETATM    1  C   UNK N   1      83.411  22.144   3.940  0.00  0.00    -0.036 C 
HETATM    2  C   UNK N   1      81.956  21.631   3.848  0.00  0.00    -0.001 C 
HETATM    3  C   UNK N   1      81.858  20.160   3.363  0.00  0.00    -0.001 C 
HETATM    4  C   UNK N   1      82.667  19.243   4.313  0.00  0.00     0.003 C 
HETATM    5  C   UNK N   1      83.136  23.611   4.383  0.00  0.00    -0.002 C 
HETATM    6  C   UNK N   1      84.116  21.248   5.002  0.00  0.00     0.010 C 
HETATM    7  C   UNK N   1      82.645  17.747   3.801  0.00  0.00    -0.017 C 
HETATM    8  C   UNK N   1      81.245  22.705   3.043  0.00  0.00     0.006 C 
HETATM    9  C   UNK N   1      84.108  19.775   4.573  0.00  0.00     0.007 C 
HETATM   10  C   UNK N   1      81.908  24.017   3.513  0.00  0.00     0.006 C 
HETATM   11  C   UNK N   1      80.388  19.700   3.349  0.00  0.00     0.033 C 
HETATM   12  C   UNK N   1      84.176  22.129   2.575  0.00  0.00     0.016 C 
HETATM   13  C   UNK N   1      81.232  17.325   3.373  0.00  0.00    -0.072 C 
HETATM   14  C   UNK N   1      83.075  16.832   4.992  0.00  0.00     0.016 C 
HETATM   15  C   UNK N   1      80.222  18.210   3.206  0.00  0.00    -0.023 C 
HETATM   16  C   UNK N   1      83.591  17.527   2.585  0.00  0.00     0.020 C 
HETATM   17  C   UNK N   1      80.973  15.846   3.147  0.00  0.00     0.066 C 
HETATM   18  C   UNK N   1      82.873  15.333   4.720  0.00  0.00     0.033 C 
HETATM   19  C   UNK N   1      81.399  15.043   4.387  0.00  0.00     0.122 C 
ENDROOT
BRANCH   5  20
HETATM   20  C   UNK N   1      84.291  24.672   4.360  0.00  0.00    -0.014 C 
HETATM   21  C   UNK N   1      85.226  24.537   5.575  0.00  0.00     0.010 C 
BRANCH  20  22
HETATM   22  C   UNK N   1      83.693  26.108   4.284  0.00  0.00     0.005 C 
BRANCH  22  23
HETATM   23  C   UNK N   1      83.741  26.920   5.600  0.00  0.00     0.005 C 
BRANCH  23  24
HETATM   24  C   UNK N   1      82.400  27.012   6.394  0.00  0.00    -0.012 C 
BRANCH  24  25
HETATM   25  C   UNK N   1      82.196  25.797   7.368  0.00  0.00    -0.019 C 
HETATM   26  C   UNK N   1      80.945  24.969   7.017  0.00  0.00     0.010 C 
HETATM   27  C   UNK N   1      82.158  26.193   8.852  0.00  0.00     0.010 C 
ENDBRANCH  24  25
BRANCH  24  28
HETATM   28  C   UNK N   1      81.209  27.210   5.411  0.00  0.00     0.000 C 
HETATM   29  C   UNK N   1      80.323  28.419   5.719  0.00  0.00     0.005 C 
ENDBRANCH  24  28
ENDBRANCH  23  24
ENDBRANCH  22  23
ENDBRANCH  20  22
ENDBRANCH   5  20
BRANCH  19  30
HETATM   30  O   UNK N   1      81.250  13.669   4.149  0.00  0.00    -0.395 OA
HETATM   31  H   UNK N   1      81.510  13.510   3.205  0.00  0.00     0.210 HD
ENDBRANCH  19  30
TORSDOF 7
ENDMDL
MODEL 6
REMARK VINA RESULT:      -5.2      1.361      2.135
REMARK  7 active torsions:
REMARK  status: ('A' for Active; 'I' for Inactive)
REMARK    1  A    between atoms: O_1  and  C_22 
REMARK    2  A    between atoms: C_6  and  C_13 
REMARK    3  A    between atoms: C_13  and  C_20 
REMARK    4  A    between atoms: C_20  and  C_24 
REMARK    5  A    between atoms: C_24  and  C_25 
REMARK    6  A    between atoms: C_25  and  C_26 
REMARK    7  A    between atoms: C_25  and  C_27 
ROOT
HETATM    1  C   UNK N   1      77.875  38.913   3.902  0.00  0.00    -0.036 C 
HETATM    2  C   UNK N   1      77.764  37.578   4.673  0.00  0.00    -0.001 C 
HETATM    3  C   UNK N   1      78.605  37.554   5.976  0.00  0.00    -0.001 C 
HETATM    4  C   UNK N   1      78.167  38.718   6.900  0.00  0.00     0.003 C 
HETATM    5  C   UNK N   1      76.987  38.571   2.671  0.00  0.00    -0.002 C 
HETATM    6  C   UNK N   1      77.302  40.006   4.854  0.00  0.00     0.010 C 
HETATM    7  C   UNK N   1      79.058  38.762   8.205  0.00  0.00    -0.017 C 
HETATM    8  C   UNK N   1      78.046  36.526   3.613  0.00  0.00     0.006 C 
HETATM    9  C   UNK N   1      78.113  40.084   6.154  0.00  0.00     0.007 C 
HETATM   10  C   UNK N   1      77.395  37.104   2.339  0.00  0.00     0.006 C 
HETATM   11  C   UNK N   1      78.404  36.218   6.717  0.00  0.00     0.033 C 
HETATM   12  C   UNK N   1      79.329  39.258   3.438  0.00  0.00     0.016 C 
HETATM   13  C   UNK N   1      79.245  37.359   8.801  0.00  0.00    -0.072 C 
HETATM   14  C   UNK N   1      78.306  39.633   9.263  0.00  0.00     0.016 C 
HETATM   15  C   UNK N   1      78.916  36.230   8.133  0.00  0.00    -0.023 C 
HETATM   16  C   UNK N   1      80.474  39.350   7.933  0.00  0.00     0.020 C 
HETATM   17  C   UNK N   1      79.810  37.258  10.207  0.00  0.00     0.066 C 
HETATM   18  C   UNK N   1      78.934  39.574  10.665  0.00  0.00     0.033 C 
HETATM   19  C   UNK N   1      78.980  38.123  11.170  0.00  0.00     0.122 C 
ENDROOT
BRANCH   5  20
HETATM   20  C   UNK N   1      76.981  39.512   1.416  0.00  0.00    -0.014 C 
HETATM   21  C   UNK N   1      76.165  40.795   1.658  0.00  0.00     0.010 C 
BRANCH  20  22
HETATM   22  C   UNK N   1      76.439  38.742   0.175  0.00  0.00     0.005 C 
BRANCH  22  23
HETATM   23  C   UNK N   1      77.432  38.592  -1.002  0.00  0.00     0.005 C 
BRANCH  23  24
HETATM   24  C   UNK N   1      77.710  37.131  -1.478  0.00  0.00    -0.012 C 
BRANCH  24  25
HETATM   25  C   UNK N   1      76.500  36.171  -1.199  0.00  0.00    -0.019 C 
HETATM   26  C   UNK N   1      76.921  34.906  -0.427  0.00  0.00     0.010 C 
HETATM   27  C   UNK N   1      75.721  35.773  -2.463  0.00  0.00     0.010 C 
ENDBRANCH  24  25
BRANCH  24  28
HETATM   28  C   UNK N   1      79.048  36.617  -0.870  0.00  0.00     0.000 C 
HETATM   29  C   UNK N   1      79.944  37.710  -0.286  0.00  0.00     0.005 C 
ENDBRANCH  24  28
ENDBRANCH  23  24
ENDBRANCH  22  23
ENDBRANCH  20  22
ENDBRANCH   5  20
BRANCH  19  30
HETATM   30  O   UNK N   1      79.551  38.106  12.451  0.00  0.00    -0.395 OA
HETATM   31  H   UNK N   1      80.431  38.559  12.379  0.00  0.00     0.210 HD
ENDBRANCH  19  30
TORSDOF 7
ENDMDL
MODEL 7
REMARK VINA RESULT:      -5.2      3.583      9.211
REMARK  7 active torsions:
REMARK  status: ('A' for Active; 'I' for Inactive)
REMARK    1  A    between atoms: O_1  and  C_22 
REMARK    2  A    between atoms: C_6  and  C_13 
REMARK    3  A    between atoms: C_13  and  C_20 
REMARK    4  A    between atoms: C_20  and  C_24 
REMARK    5  A    between atoms: C_24  and  C_25 
REMARK    6  A    between atoms: C_25  and  C_26 
REMARK    7  A    between atoms: C_25  and  C_27 
ROOT
HETATM    1  C   UNK N   1      78.565  37.635   5.748  0.00  0.00    -0.036 C 
HETATM    2  C   UNK N   1      77.587  38.729   5.264  0.00  0.00    -0.001 C 
HETATM    3  C   UNK N   1      77.652  38.970   3.732  0.00  0.00    -0.001 C 
HETATM    4  C   UNK N   1      77.353  37.648   2.983  0.00  0.00     0.003 C 
HETATM    5  C   UNK N   1      78.283  37.699   7.277  0.00  0.00    -0.002 C 
HETATM    6  C   UNK N   1      78.119  36.319   5.043  0.00  0.00     0.010 C 
HETATM    7  C   UNK N   1      77.484  37.848   1.420  0.00  0.00    -0.017 C 
HETATM    8  C   UNK N   1      77.869  39.900   6.191  0.00  0.00     0.006 C 
HETATM    9  C   UNK N   1      78.202  36.455   3.517  0.00  0.00     0.007 C 
HETATM   10  C   UNK N   1      78.165  39.230   7.549  0.00  0.00     0.006 C 
HETATM   11  C   UNK N   1      76.615  40.031   3.315  0.00  0.00     0.033 C 
HETATM   12  C   UNK N   1      80.069  37.958   5.464  0.00  0.00     0.016 C 
HETATM   13  C   UNK N   1      76.794  39.141   0.964  0.00  0.00    -0.072 C 
HETATM   14  C   UNK N   1      76.758  36.650   0.727  0.00  0.00     0.016 C 
HETATM   15  C   UNK N   1      76.381  40.096   1.829  0.00  0.00    -0.023 C 
HETATM   16  C   UNK N   1      78.969  37.917   0.957  0.00  0.00     0.020 C 
HETATM   17  C   UNK N   1      76.561  39.331  -0.525  0.00  0.00     0.066 C 
HETATM   18  C   UNK N   1      76.594  36.827  -0.791  0.00  0.00     0.033 C 
HETATM   19  C   UNK N   1      75.814  38.116  -1.098  0.00  0.00     0.122 C 
ENDROOT
BRANCH   5  20
HETATM   20  C   UNK N   1      79.229  36.961   8.287  0.00  0.00    -0.014 C 
HETATM   21  C   UNK N   1      78.532  35.768   8.967  0.00  0.00     0.010 C 
BRANCH  20  22
HETATM   22  C   UNK N   1      79.763  37.966   9.350  0.00  0.00     0.005 C 
BRANCH  22  23
HETATM   23  C   UNK N   1      81.279  37.881   9.644  0.00  0.00     0.005 C 
BRANCH  23  24
HETATM   24  C   UNK N   1      82.201  37.626   8.409  0.00  0.00    -0.012 C 
BRANCH  24  25
HETATM   25  C   UNK N   1      82.773  36.165   8.383  0.00  0.00    -0.019 C 
HETATM   26  C   UNK N   1      82.447  35.431   7.067  0.00  0.00     0.010 C 
HETATM   27  C   UNK N   1      82.334  35.305   9.579  0.00  0.00     0.010 C 
ENDBRANCH  24  25
BRANCH  24  28
HETATM   28  C   UNK N   1      83.310  38.716   8.336  0.00  0.00     0.000 C 
HETATM   29  C   UNK N   1      83.238  39.615   7.099  0.00  0.00     0.005 C 
ENDBRANCH  24  28
ENDBRANCH  23  24
ENDBRANCH  22  23
ENDBRANCH  20  22
ENDBRANCH   5  20
BRANCH  19  30
HETATM   30  O   UNK N   1      75.678  38.243  -2.489  0.00  0.00    -0.395 OA
HETATM   31  H   UNK N   1      76.357  37.648  -2.900  0.00  0.00     0.210 HD
ENDBRANCH  19  30
TORSDOF 7
ENDMDL
MODEL 8
REMARK VINA RESULT:      -5.1      3.787      9.879
REMARK  7 active torsions:
REMARK  status: ('A' for Active; 'I' for Inactive)
REMARK    1  A    between atoms: O_1  and  C_22 
REMARK    2  A    between atoms: C_6  and  C_13 
REMARK    3  A    between atoms: C_13  and  C_20 
REMARK    4  A    between atoms: C_20  and  C_24 
REMARK    5  A    between atoms: C_24  and  C_25 
REMARK    6  A    between atoms: C_25  and  C_26 
REMARK    7  A    between atoms: C_25  and  C_27 
ROOT
HETATM    1  C   UNK N   1      78.175  38.139   3.845  0.00  0.00    -0.036 C 
HETATM    2  C   UNK N   1      77.229  39.115   3.110  0.00  0.00    -0.001 C 
HETATM    3  C   UNK N   1      77.288  38.974   1.566  0.00  0.00    -0.001 C 
HETATM    4  C   UNK N   1      76.940  37.520   1.162  0.00  0.00     0.003 C 
HETATM    5  C   UNK N   1      77.910  38.583   5.313  0.00  0.00    -0.002 C 
HETATM    6  C   UNK N   1      77.681  36.707   3.483  0.00  0.00     0.010 C 
HETATM    7  C   UNK N   1      77.063  37.329  -0.402  0.00  0.00    -0.017 C 
HETATM    8  C   UNK N   1      77.557  40.466   3.725  0.00  0.00     0.006 C 
HETATM    9  C   UNK N   1      77.754  36.465   1.970  0.00  0.00     0.007 C 
HETATM   10  C   UNK N   1      77.845  40.137   5.205  0.00  0.00     0.006 C 
HETATM   11  C   UNK N   1      76.282  39.936   0.904  0.00  0.00     0.033 C 
HETATM   12  C   UNK N   1      79.687  38.332   3.490  0.00  0.00     0.016 C 
HETATM   13  C   UNK N   1      76.411  38.495  -1.160  0.00  0.00    -0.072 C 
HETATM   14  C   UNK N   1      76.292  36.024  -0.782  0.00  0.00     0.016 C 
HETATM   15  C   UNK N   1      76.037  39.645  -0.553  0.00  0.00    -0.023 C 
HETATM   16  C   UNK N   1      78.545  37.233  -0.870  0.00  0.00     0.020 C 
HETATM   17  C   UNK N   1      76.171  38.325  -2.650  0.00  0.00     0.066 C 
HETATM   18  C   UNK N   1      76.119  35.831  -2.297  0.00  0.00     0.033 C 
HETATM   19  C   UNK N   1      75.379  37.032  -2.909  0.00  0.00     0.122 C 
ENDROOT
BRANCH   5  20
HETATM   20  C   UNK N   1      78.841  38.081   6.471  0.00  0.00    -0.014 C 
HETATM   21  C   UNK N   1      78.542  36.623   6.864  0.00  0.00     0.010 C 
BRANCH  20  22
HETATM   22  C   UNK N   1      78.710  39.021   7.706  0.00  0.00     0.005 C 
BRANCH  22  23
HETATM   23  C   UNK N   1      77.604  38.640   8.719  0.00  0.00     0.005 C 
BRANCH  23  24
HETATM   24  C   UNK N   1      76.975  39.823   9.520  0.00  0.00    -0.012 C 
BRANCH  24  25
HETATM   25  C   UNK N   1      76.623  41.047   8.602  0.00  0.00    -0.019 C 
HETATM   26  C   UNK N   1      76.403  42.341   9.409  0.00  0.00     0.010 C 
HETATM   27  C   UNK N   1      75.422  40.801   7.676  0.00  0.00     0.010 C 
ENDBRANCH  24  25
BRANCH  24  28
HETATM   28  C   UNK N   1      77.894  40.206  10.717  0.00  0.00     0.000 C 
HETATM   29  C   UNK N   1      77.278  39.961  12.096  0.00  0.00     0.005 C 
ENDBRANCH  24  28
ENDBRANCH  23  24
ENDBRANCH  22  23
ENDBRANCH  20  22
ENDBRANCH   5  20
BRANCH  19  30
HETATM   30  O   UNK N   1      75.235  36.822  -4.288  0.00  0.00    -0.395 OA
HETATM   31  H   UNK N   1      74.731  35.974  -4.399  0.00  0.00     0.210 HD
ENDBRANCH  19  30
TORSDOF 7
ENDMDL
MODEL 9
REMARK VINA RESULT:      -5.1     13.530     15.733
REMARK  7 active torsions:
REMARK  status: ('A' for Active; 'I' for Inactive)
REMARK    1  A    between atoms: O_1  and  C_22 
REMARK    2  A    between atoms: C_6  and  C_13 
REMARK    3  A    between atoms: C_13  and  C_20 
REMARK    4  A    between atoms: C_20  and  C_24 
REMARK    5  A    between atoms: C_24  and  C_25 
REMARK    6  A    between atoms: C_25  and  C_26 
REMARK    7  A    between atoms: C_25  and  C_27 
ROOT
HETATM    1  C   UNK N   1      82.639  24.010   4.708  0.00  0.00    -0.036 C 
HETATM    2  C   UNK N   1      83.972  24.291   5.437  0.00  0.00    -0.001 C 
HETATM    3  C   UNK N   1      84.003  25.673   6.141  0.00  0.00    -0.001 C 
HETATM    4  C   UNK N   1      82.834  25.768   7.153  0.00  0.00     0.003 C 
HETATM    5  C   UNK N   1      82.973  22.621   4.091  0.00  0.00    -0.002 C 
HETATM    6  C   UNK N   1      81.540  24.002   5.812  0.00  0.00     0.010 C 
HETATM    7  C   UNK N   1      82.797  27.195   7.834  0.00  0.00    -0.017 C 
HETATM    8  C   UNK N   1      85.028  23.993   4.385  0.00  0.00     0.006 C 
HETATM    9  C   UNK N   1      81.468  25.357   6.528  0.00  0.00     0.007 C 
HETATM   10  C   UNK N   1      84.445  22.795   3.608  0.00  0.00     0.006 C 
HETATM   11  C   UNK N   1      85.336  25.861   6.891  0.00  0.00     0.033 C 
HETATM   12  C   UNK N   1      82.308  25.036   3.574  0.00  0.00     0.016 C 
HETATM   13  C   UNK N   1      84.201  27.645   8.263  0.00  0.00    -0.072 C 
HETATM   14  C   UNK N   1      81.918  27.084   9.121  0.00  0.00     0.016 C 
HETATM   15  C   UNK N   1      85.328  27.016   7.857  0.00  0.00    -0.023 C 
HETATM   16  C   UNK N   1      82.224  28.286   6.883  0.00  0.00     0.020 C 
HETATM   17  C   UNK N   1      84.307  28.839   9.195  0.00  0.00     0.066 C 
HETATM   18  C   UNK N   1      81.982  28.330  10.018  0.00  0.00     0.033 C 
HETATM   19  C   UNK N   1      83.433  28.613  10.440  0.00  0.00     0.122 C 
ENDROOT
BRANCH   5  20
HETATM   20  C   UNK N   1      82.033  21.992   3.004  0.00  0.00    -0.014 C 
HETATM   21  C   UNK N   1      80.589  21.830   3.511  0.00  0.00     0.010 C 
BRANCH  20  22
HETATM   22  C   UNK N   1      82.606  20.623   2.532  0.00  0.00     0.005 C 
BRANCH  22  23
HETATM   23  C   UNK N   1      81.959  19.373   3.174  0.00  0.00     0.005 C 
BRANCH  23  24
HETATM   24  C   UNK N   1      82.666  18.820   4.452  0.00  0.00    -0.012 C 
BRANCH  24  25
HETATM   25  C   UNK N   1      84.188  19.203   4.507  0.00  0.00    -0.019 C 
HETATM   26  C   UNK N   1      85.103  18.020   4.136  0.00  0.00     0.010 C 
HETATM   27  C   UNK N   1      84.629  19.798   5.854  0.00  0.00     0.010 C 
ENDBRANCH  24  25
BRANCH  24  28
HETATM   28  C   UNK N   1      82.418  17.289   4.580  0.00  0.00     0.000 C 
HETATM   29  C   UNK N   1      81.315  16.744   3.671  0.00  0.00     0.005 C 
ENDBRANCH  24  28
ENDBRANCH  23  24
ENDBRANCH  22  23
ENDBRANCH  20  22
ENDBRANCH   5  20
BRANCH  19  30
HETATM   30  O   UNK N   1      83.454  29.751  11.260  0.00  0.00    -0.395 OA
HETATM   31  H   UNK N   1      82.586  29.775  11.740  0.00  0.00     0.210 HD
ENDBRANCH  19  30
TORSDOF 7
ENDMDL
