MODEL 1
REMARK VINA RESULT:      -5.6      0.000      0.000
REMARK  2 active torsions:
REMARK  status: ('A' for Active; 'I' for Inactive)
REMARK    1  A    between atoms: O_1  and  C_24 
REMARK    2  A    between atoms: C_16  and  C_27 
ROOT
HETATM    1  C   UNK N   1      84.529  24.937   4.940  0.00  0.00    -0.032 C 
HETATM    2  C   UNK N   1      84.657  23.437   4.321  0.00  0.00    -0.032 C 
HETATM    3  C   UNK N   1      83.223  25.007   5.846  0.00  0.00     0.003 C 
HETATM    4  C   UNK N   1      83.333  23.122   3.496  0.00  0.00    -0.000 C 
HETATM    5  C   UNK N   1      83.028  26.296   6.769  0.00  0.00    -0.035 C 
HETATM    6  C   UNK N   1      83.460  21.756   2.762  0.00  0.00     0.006 C 
HETATM    7  C   UNK N   1      84.650  21.757   1.777  0.00  0.00    -0.039 C 
HETATM    8  C   UNK N   1      84.363  26.522   7.567  0.00  0.00     0.004 C 
HETATM    9  C   UNK N   1      85.913  23.290   3.370  0.00  0.00     0.011 C 
HETATM   10  C   UNK N   1      85.756  25.285   5.838  0.00  0.00     0.011 C 
HETATM   11  C   UNK N   1      81.959  24.625   5.024  0.00  0.00     0.006 C 
HETATM   12  C   UNK N   1      82.083  23.228   4.391  0.00  0.00     0.006 C 
HETATM   13  C   UNK N   1      85.958  21.957   2.581  0.00  0.00     0.010 C 
HETATM   14  C   UNK N   1      85.602  26.593   6.633  0.00  0.00     0.007 C 
HETATM   15  C   UNK N   1      82.297  21.210   1.910  0.00  0.00     0.018 C 
HETATM   16  C   UNK N   1      84.312  27.668   8.678  0.00  0.00    -0.017 C 
HETATM   17  C   UNK N   1      81.878  25.988   7.820  0.00  0.00     0.012 C 
HETATM   18  C   UNK N   1      84.496  25.991   3.774  0.00  0.00     0.016 C 
HETATM   19  C   UNK N   1      84.858  22.361   5.464  0.00  0.00     0.016 C 
HETATM   20  C   UNK N   1      84.498  20.353   1.185  0.00  0.00     0.010 C 
HETATM   21  C   UNK N   1      82.986  20.224   0.921  0.00  0.00     0.010 C 
HETATM   22  C   UNK N   1      82.604  27.562   5.960  0.00  0.00     0.016 C 
HETATM   23  C   UNK N   1      82.893  27.739   9.379  0.00  0.00     0.126 C 
HETATM   24  C   UNK N   1      82.189  26.380   9.289  0.00  0.00     0.033 C 
HETATM   25  C   UNK N   1      84.560  22.810   0.622  0.00  0.00     0.015 C 
HETATM   26  C   UNK N   1      85.362  27.299   9.767  0.00  0.00     0.018 C 
HETATM   27  C   UNK N   1      84.714  29.068   8.147  0.00  0.00     0.018 C 
ENDROOT
BRANCH  15  28
HETATM   28  C   UNK N   1      81.160  20.567   2.697  0.00  0.00    -0.089 C 
HETATM   29  C   UNK N   1      81.435  19.438   3.668  0.00  0.00     0.043 C 
HETATM   30  C   UNK N   1      79.897  20.998   2.527  0.00  0.00     0.014 C 
ENDBRANCH  15  28
BRANCH  23  31
HETATM   31  O   UNK N   1      82.064  28.724   8.818  0.00  0.00    -0.395 OA
HETATM   32  H   UNK N   1      81.313  28.877   9.450  0.00  0.00     0.210 HD
ENDBRANCH  23  31
TORSDOF 2
ENDMDL
MODEL 2
REMARK VINA RESULT:      -5.6     12.660     16.276
REMARK  2 active torsions:
REMARK  status: ('A' for Active; 'I' for Inactive)
REMARK    1  A    between atoms: O_1  and  C_24 
REMARK    2  A    between atoms: C_16  and  C_27 
ROOT
HETATM    1  C   UNK N   1      79.245  36.841   5.009  0.00  0.00    -0.032 C 
HETATM    2  C   UNK N   1      79.555  37.503   6.462  0.00  0.00    -0.032 C 
HETATM    3  C   UNK N   1      78.785  37.992   4.010  0.00  0.00     0.003 C 
HETATM    4  C   UNK N   1      78.240  38.247   6.965  0.00  0.00    -0.000 C 
HETATM    5  C   UNK N   1      78.681  37.630   2.458  0.00  0.00    -0.035 C 
HETATM    6  C   UNK N   1      78.433  38.776   8.415  0.00  0.00     0.006 C 
HETATM    7  C   UNK N   1      78.736  37.624   9.397  0.00  0.00    -0.039 C 
HETATM    8  C   UNK N   1      80.022  36.927   2.037  0.00  0.00     0.004 C 
HETATM    9  C   UNK N   1      79.983  36.419   7.533  0.00  0.00     0.011 C 
HETATM   10  C   UNK N   1      80.519  36.168   4.411  0.00  0.00     0.011 C 
HETATM   11  C   UNK N   1      77.541  38.742   4.567  0.00  0.00     0.006 C 
HETATM   12  C   UNK N   1      77.801  39.333   5.963  0.00  0.00     0.006 C 
HETATM   13  C   UNK N   1      80.072  36.959   8.983  0.00  0.00     0.010 C 
HETATM   14  C   UNK N   1      80.364  35.717   2.948  0.00  0.00     0.007 C 
HETATM   15  C   UNK N   1      77.308  39.556   9.123  0.00  0.00     0.018 C 
HETATM   16  C   UNK N   1      80.184  36.639   0.475  0.00  0.00    -0.017 C 
HETATM   17  C   UNK N   1      78.560  38.984   1.637  0.00  0.00     0.012 C 
HETATM   18  C   UNK N   1      78.156  35.718   5.159  0.00  0.00     0.016 C 
HETATM   19  C   UNK N   1      80.763  38.522   6.383  0.00  0.00     0.016 C 
HETATM   20  C   UNK N   1      78.822  38.414  10.706  0.00  0.00     0.010 C 
HETATM   21  C   UNK N   1      77.619  39.375  10.638  0.00  0.00     0.010 C 
HETATM   22  C   UNK N   1      77.429  36.759   2.122  0.00  0.00     0.016 C 
HETATM   23  C   UNK N   1      79.524  37.783  -0.401  0.00  0.00     0.126 C 
HETATM   24  C   UNK N   1      79.477  39.095   0.389  0.00  0.00     0.033 C 
HETATM   25  C   UNK N   1      77.611  36.543   9.526  0.00  0.00     0.015 C 
HETATM   26  C   UNK N   1      81.710  36.625   0.166  0.00  0.00     0.018 C 
HETATM   27  C   UNK N   1      79.641  35.254   0.038  0.00  0.00     0.018 C 
ENDROOT
BRANCH  15  28
HETATM   28  C   UNK N   1      77.174  41.020   8.714  0.00  0.00    -0.089 C 
HETATM   29  C   UNK N   1      75.838  41.580   8.276  0.00  0.00     0.043 C 
HETATM   30  C   UNK N   1      78.253  41.824   8.733  0.00  0.00     0.014 C 
ENDBRANCH  15  28
BRANCH  23  31
HETATM   31  O   UNK N   1      78.226  37.455  -0.826  0.00  0.00    -0.395 OA
HETATM   32  H   UNK N   1      78.312  36.796  -1.565  0.00  0.00     0.210 HD
ENDBRANCH  23  31
TORSDOF 2
ENDMDL
MODEL 3
REMARK VINA RESULT:      -5.5     12.591     15.513
REMARK  2 active torsions:
REMARK  status: ('A' for Active; 'I' for Inactive)
REMARK    1  A    between atoms: O_1  and  C_24 
REMARK    2  A    between atoms: C_16  and  C_27 
ROOT
HETATM    1  C   UNK N   1      78.837  38.731   4.606  0.00  0.00    -0.032 C 
HETATM    2  C   UNK N   1      78.988  37.266   3.915  0.00  0.00    -0.032 C 
HETATM    3  C   UNK N   1      77.500  39.412   4.077  0.00  0.00     0.003 C 
HETATM    4  C   UNK N   1      78.995  37.457   2.334  0.00  0.00    -0.000 C 
HETATM    5  C   UNK N   1      77.001  40.739   4.812  0.00  0.00    -0.035 C 
HETATM    6  C   UNK N   1      79.281  36.104   1.622  0.00  0.00     0.006 C 
HETATM    7  C   UNK N   1      80.652  35.529   2.040  0.00  0.00    -0.039 C 
HETATM    8  C   UNK N   1      76.998  40.460   6.358  0.00  0.00     0.004 C 
HETATM    9  C   UNK N   1      80.318  36.531   4.357  0.00  0.00     0.011 C 
HETATM   10  C   UNK N   1      78.735  38.614   6.159  0.00  0.00     0.011 C 
HETATM   11  C   UNK N   1      77.512  39.518   2.525  0.00  0.00     0.006 C 
HETATM   12  C   UNK N   1      77.703  38.147   1.854  0.00  0.00     0.006 C 
HETATM   13  C   UNK N   1      80.623  35.237   3.561  0.00  0.00     0.010 C 
HETATM   14  C   UNK N   1      78.368  39.932   6.865  0.00  0.00     0.007 C 
HETATM   15  C   UNK N   1      79.318  36.018   0.083  0.00  0.00     0.018 C 
HETATM   16  C   UNK N   1      76.364  41.614   7.262  0.00  0.00    -0.017 C 
HETATM   17  C   UNK N   1      75.505  41.025   4.364  0.00  0.00     0.012 C 
HETATM   18  C   UNK N   1      80.108  39.600   4.291  0.00  0.00     0.016 C 
HETATM   19  C   UNK N   1      77.807  36.304   4.344  0.00  0.00     0.016 C 
HETATM   20  C   UNK N   1      80.682  34.269   1.171  0.00  0.00     0.010 C 
HETATM   21  C   UNK N   1      80.182  34.755  -0.203  0.00  0.00     0.010 C 
HETATM   22  C   UNK N   1      77.854  41.994   4.443  0.00  0.00     0.016 C 
HETATM   23  C   UNK N   1      75.149  42.325   6.534  0.00  0.00     0.126 C 
HETATM   24  C   UNK N   1      74.518  41.377   5.509  0.00  0.00     0.033 C 
HETATM   25  C   UNK N   1      81.888  36.423   1.685  0.00  0.00     0.015 C 
HETATM   26  C   UNK N   1      75.815  40.938   8.553  0.00  0.00     0.018 C 
HETATM   27  C   UNK N   1      77.395  42.671   7.733  0.00  0.00     0.018 C 
ENDROOT
BRANCH  15  28
HETATM   28  C   UNK N   1      77.953  35.973  -0.598  0.00  0.00    -0.089 C 
HETATM   29  C   UNK N   1      76.914  34.955  -0.177  0.00  0.00     0.043 C 
HETATM   30  C   UNK N   1      77.668  36.838  -1.587  0.00  0.00     0.014 C 
ENDBRANCH  15  28
BRANCH  23  31
HETATM   31  O   UNK N   1      75.529  43.513   5.890  0.00  0.00    -0.395 OA
HETATM   32  H   UNK N   1      75.060  44.261   6.343  0.00  0.00     0.210 HD
ENDBRANCH  23  31
TORSDOF 2
ENDMDL
MODEL 4
REMARK VINA RESULT:      -5.4     13.758     16.492
REMARK  2 active torsions:
REMARK  status: ('A' for Active; 'I' for Inactive)
REMARK    1  A    between atoms: O_1  and  C_24 
REMARK    2  A    between atoms: C_16  and  C_27 
ROOT
HETATM    1  C   UNK N   1      78.680  31.615  -6.670  0.00  0.00    -0.032 C 
HETATM    2  C   UNK N   1      79.569  32.928  -7.033  0.00  0.00    -0.032 C 
HETATM    3  C   UNK N   1      79.305  30.353  -7.410  0.00  0.00     0.003 C 
HETATM    4  C   UNK N   1      79.580  33.103  -8.616  0.00  0.00    -0.000 C 
HETATM    5  C   UNK N   1      78.765  28.907  -6.997  0.00  0.00    -0.035 C 
HETATM    6  C   UNK N   1      80.296  34.425  -9.014  0.00  0.00     0.006 C 
HETATM    7  C   UNK N   1      79.587  35.653  -8.402  0.00  0.00    -0.039 C 
HETATM    8  C   UNK N   1      78.811  28.807  -5.430  0.00  0.00     0.004 C 
HETATM    9  C   UNK N   1      78.992  34.243  -6.367  0.00  0.00     0.011 C 
HETATM   10  C   UNK N   1      78.696  31.329  -5.136  0.00  0.00     0.011 C 
HETATM   11  C   UNK N   1      79.364  30.587  -8.946  0.00  0.00     0.006 C 
HETATM   12  C   UNK N   1      80.161  31.853  -9.307  0.00  0.00     0.006 C 
HETATM   13  C   UNK N   1      79.663  35.550  -6.859  0.00  0.00     0.010 C 
HETATM   14  C   UNK N   1      78.065  29.982  -4.742  0.00  0.00     0.007 C 
HETATM   15  C   UNK N   1      80.460  34.815 -10.496  0.00  0.00     0.018 C 
HETATM   16  C   UNK N   1      78.470  27.369  -4.825  0.00  0.00    -0.017 C 
HETATM   17  C   UNK N   1      79.758  27.817  -7.586  0.00  0.00     0.012 C 
HETATM   18  C   UNK N   1      77.182  31.859  -7.078  0.00  0.00     0.016 C 
HETATM   19  C   UNK N   1      81.048  32.789  -6.489  0.00  0.00     0.016 C 
HETATM   20  C   UNK N   1      80.453  36.772  -8.989  0.00  0.00     0.010 C 
HETATM   21  C   UNK N   1      80.641  36.361 -10.462  0.00  0.00     0.010 C 
HETATM   22  C   UNK N   1      77.342  28.607  -7.564  0.00  0.00     0.016 C 
HETATM   23  C   UNK N   1      79.000  26.202  -5.757  0.00  0.00     0.126 C 
HETATM   24  C   UNK N   1      80.181  26.694  -6.601  0.00  0.00     0.033 C 
HETATM   25  C   UNK N   1      78.104  35.864  -8.857  0.00  0.00     0.015 C 
HETATM   26  C   UNK N   1      79.209  27.258  -3.458  0.00  0.00     0.018 C 
HETATM   27  C   UNK N   1      76.964  27.164  -4.519  0.00  0.00     0.018 C 
ENDROOT
BRANCH  15  28
HETATM   28  C   UNK N   1      81.586  34.100 -11.236  0.00  0.00    -0.089 C 
HETATM   29  C   UNK N   1      82.949  33.938 -10.597  0.00  0.00     0.043 C 
HETATM   30  C   UNK N   1      81.375  33.613 -12.472  0.00  0.00     0.014 C 
ENDBRANCH  15  28
BRANCH  23  31
HETATM   31  O   UNK N   1      78.004  25.699  -6.609  0.00  0.00    -0.395 OA
HETATM   32  H   UNK N   1      77.891  24.735  -6.399  0.00  0.00     0.210 HD
ENDBRANCH  23  31
TORSDOF 2
ENDMDL
MODEL 5
REMARK VINA RESULT:      -5.4      3.245      7.351
REMARK  2 active torsions:
REMARK  status: ('A' for Active; 'I' for Inactive)
REMARK    1  A    between atoms: O_1  and  C_24 
REMARK    2  A    between atoms: C_16  and  C_27 
ROOT
HETATM    1  C   UNK N   1      83.657  22.214   3.053  0.00  0.00    -0.032 C 
HETATM    2  C   UNK N   1      82.434  23.282   3.154  0.00  0.00    -0.032 C 
HETATM    3  C   UNK N   1      83.972  21.658   4.510  0.00  0.00     0.003 C 
HETATM    4  C   UNK N   1      82.861  24.439   4.161  0.00  0.00    -0.000 C 
HETATM    5  C   UNK N   1      84.954  20.404   4.630  0.00  0.00    -0.035 C 
HETATM    6  C   UNK N   1      81.787  25.564   4.187  0.00  0.00     0.006 C 
HETATM    7  C   UNK N   1      81.599  26.192   2.788  0.00  0.00    -0.039 C 
HETATM    8  C   UNK N   1      84.450  19.302   3.629  0.00  0.00     0.004 C 
HETATM    9  C   UNK N   1      82.079  23.918   1.749  0.00  0.00     0.011 C 
HETATM   10  C   UNK N   1      83.275  21.002   2.148  0.00  0.00     0.011 C 
HETATM   11  C   UNK N   1      84.317  22.822   5.483  0.00  0.00     0.006 C 
HETATM   12  C   UNK N   1      83.191  23.867   5.554  0.00  0.00     0.006 C 
HETATM   13  C   UNK N   1      81.080  25.100   1.821  0.00  0.00     0.010 C 
HETATM   14  C   UNK N   1      84.292  19.848   2.183  0.00  0.00     0.007 C 
HETATM   15  C   UNK N   1      81.956  26.791   5.104  0.00  0.00     0.018 C 
HETATM   16  C   UNK N   1      85.201  17.896   3.721  0.00  0.00    -0.017 C 
HETATM   17  C   UNK N   1      84.837  19.817   6.101  0.00  0.00     0.012 C 
HETATM   18  C   UNK N   1      84.910  22.903   2.399  0.00  0.00     0.016 C 
HETATM   19  C   UNK N   1      81.104  22.586   3.654  0.00  0.00     0.016 C 
HETATM   20  C   UNK N   1      80.558  27.265   3.123  0.00  0.00     0.010 C 
HETATM   21  C   UNK N   1      81.077  27.887   4.433  0.00  0.00     0.010 C 
HETATM   22  C   UNK N   1      86.450  20.779   4.387  0.00  0.00     0.016 C 
HETATM   23  C   UNK N   1      85.613  17.551   5.212  0.00  0.00     0.126 C 
HETATM   24  C   UNK N   1      84.689  18.275   6.197  0.00  0.00     0.033 C 
HETATM   25  C   UNK N   1      82.870  26.884   2.190  0.00  0.00     0.015 C 
HETATM   26  C   UNK N   1      84.198  16.806   3.241  0.00  0.00     0.018 C 
HETATM   27  C   UNK N   1      86.436  17.788   2.790  0.00  0.00     0.018 C 
ENDROOT
BRANCH  15  28
HETATM   28  C   UNK N   1      81.604  26.560   6.570  0.00  0.00    -0.089 C 
HETATM   29  C   UNK N   1      82.598  26.889   7.664  0.00  0.00     0.043 C 
HETATM   30  C   UNK N   1      80.403  26.052   6.900  0.00  0.00     0.014 C 
ENDBRANCH  15  28
BRANCH  23  31
HETATM   31  O   UNK N   1      86.945  17.892   5.495  0.00  0.00    -0.395 OA
HETATM   32  H   UNK N   1      86.979  18.208   6.436  0.00  0.00     0.210 HD
ENDBRANCH  23  31
TORSDOF 2
ENDMDL
MODEL 6
REMARK VINA RESULT:      -5.4      2.916      7.663
REMARK  2 active torsions:
REMARK  status: ('A' for Active; 'I' for Inactive)
REMARK    1  A    between atoms: O_1  and  C_24 
REMARK    2  A    between atoms: C_16  and  C_27 
ROOT
HETATM    1  C   UNK N   1      83.263  22.857   3.773  0.00  0.00    -0.032 C 
HETATM    2  C   UNK N   1      82.679  24.246   4.387  0.00  0.00    -0.032 C 
HETATM    3  C   UNK N   1      84.124  22.125   4.893  0.00  0.00     0.003 C 
HETATM    4  C   UNK N   1      83.907  25.132   4.878  0.00  0.00    -0.000 C 
HETATM    5  C   UNK N   1      84.580  20.620   4.613  0.00  0.00    -0.035 C 
HETATM    6  C   UNK N   1      83.417  26.533   5.343  0.00  0.00     0.006 C 
HETATM    7  C   UNK N   1      82.709  27.289   4.197  0.00  0.00    -0.039 C 
HETATM    8  C   UNK N   1      83.312  19.809   4.162  0.00  0.00     0.004 C 
HETATM    9  C   UNK N   1      81.838  25.061   3.323  0.00  0.00     0.011 C 
HETATM   10  C   UNK N   1      82.109  21.896   3.350  0.00  0.00     0.011 C 
HETATM   11  C   UNK N   1      85.271  23.046   5.397  0.00  0.00     0.006 C 
HETATM   12  C   UNK N   1      84.740  24.385   5.938  0.00  0.00     0.006 C 
HETATM   13  C   UNK N   1      81.449  26.490   3.781  0.00  0.00     0.010 C 
HETATM   14  C   UNK N   1      82.577  20.481   2.969  0.00  0.00     0.007 C 
HETATM   15  C   UNK N   1      84.415  27.574   5.888  0.00  0.00     0.018 C 
HETATM   16  C   UNK N   1      83.526  18.235   3.998  0.00  0.00    -0.017 C 
HETATM   17  C   UNK N   1      85.100  19.994   5.977  0.00  0.00     0.012 C 
HETATM   18  C   UNK N   1      84.107  23.161   2.482  0.00  0.00     0.016 C 
HETATM   19  C   UNK N   1      81.688  23.970   5.590  0.00  0.00     0.016 C 
HETATM   20  C   UNK N   1      82.395  28.607   4.910  0.00  0.00     0.010 C 
HETATM   21  C   UNK N   1      83.695  28.937   5.667  0.00  0.00     0.010 C 
HETATM   22  C   UNK N   1      85.742  20.521   3.574  0.00  0.00     0.016 C 
HETATM   23  C   UNK N   1      84.545  17.670   5.072  0.00  0.00     0.126 C 
HETATM   24  C   UNK N   1      84.567  18.574   6.309  0.00  0.00     0.033 C 
HETATM   25  C   UNK N   1      83.598  27.586   2.943  0.00  0.00     0.015 C 
HETATM   26  C   UNK N   1      82.147  17.555   4.248  0.00  0.00     0.018 C 
HETATM   27  C   UNK N   1      83.965  17.812   2.573  0.00  0.00     0.018 C 
ENDROOT
BRANCH  15  28
HETATM   28  C   UNK N   1      84.854  27.359   7.333  0.00  0.00    -0.089 C 
HETATM   29  C   UNK N   1      83.837  27.062   8.413  0.00  0.00     0.043 C 
HETATM   30  C   UNK N   1      86.157  27.440   7.657  0.00  0.00     0.014 C 
ENDBRANCH  15  28
BRANCH  23  31
HETATM   31  O   UNK N   1      85.850  17.552   4.566  0.00  0.00    -0.395 OA
HETATM   32  H   UNK N   1      86.240  16.718   4.938  0.00  0.00     0.210 HD
ENDBRANCH  23  31
TORSDOF 2
ENDMDL
MODEL 7
REMARK VINA RESULT:      -5.3     12.704     15.778
REMARK  2 active torsions:
REMARK  status: ('A' for Active; 'I' for Inactive)
REMARK    1  A    between atoms: O_1  and  C_24 
REMARK    2  A    between atoms: C_16  and  C_27 
ROOT
HETATM    1  C   UNK N   1      79.357  31.107  -7.067  0.00  0.00    -0.032 C 
HETATM    2  C   UNK N   1      78.515  32.500  -7.055  0.00  0.00    -0.032 C 
HETATM    3  C   UNK N   1      78.963  30.260  -5.778  0.00  0.00     0.003 C 
HETATM    4  C   UNK N   1      78.845  33.272  -5.702  0.00  0.00    -0.000 C 
HETATM    5  C   UNK N   1      79.459  28.743  -5.707  0.00  0.00    -0.035 C 
HETATM    6  C   UNK N   1      78.180  34.678  -5.701  0.00  0.00     0.006 C 
HETATM    7  C   UNK N   1      78.685  35.539  -6.879  0.00  0.00    -0.039 C 
HETATM    8  C   UNK N   1      79.074  28.047  -7.062  0.00  0.00     0.004 C 
HETATM    9  C   UNK N   1      78.876  33.426  -8.286  0.00  0.00     0.011 C 
HETATM   10  C   UNK N   1      79.016  30.252  -8.327  0.00  0.00     0.011 C 
HETATM   11  C   UNK N   1      79.234  31.072  -4.480  0.00  0.00     0.006 C 
HETATM   12  C   UNK N   1      78.483  32.416  -4.473  0.00  0.00     0.006 C 
HETATM   13  C   UNK N   1      78.276  34.852  -8.205  0.00  0.00     0.010 C 
HETATM   14  C   UNK N   1      79.600  28.829  -8.297  0.00  0.00     0.007 C 
HETATM   15  C   UNK N   1      78.330  35.618  -4.488  0.00  0.00     0.018 C 
HETATM   16  C   UNK N   1      79.333  26.473  -7.122  0.00  0.00    -0.017 C 
HETATM   17  C   UNK N   1      78.667  28.014  -4.540  0.00  0.00     0.012 C 
HETATM   18  C   UNK N   1      80.897  31.418  -7.123  0.00  0.00     0.016 C 
HETATM   19  C   UNK N   1      76.960  32.231  -7.165  0.00  0.00     0.016 C 
HETATM   20  C   UNK N   1      77.923  36.838  -6.597  0.00  0.00     0.010 C 
HETATM   21  C   UNK N   1      78.081  37.037  -5.078  0.00  0.00     0.010 C 
HETATM   22  C   UNK N   1      80.984  28.618  -5.395  0.00  0.00     0.016 C 
HETATM   23  C   UNK N   1      79.070  25.784  -5.720  0.00  0.00     0.126 C 
HETATM   24  C   UNK N   1      78.085  26.619  -4.896  0.00  0.00     0.033 C 
HETATM   25  C   UNK N   1      80.222  35.838  -6.878  0.00  0.00     0.015 C 
HETATM   26  C   UNK N   1      78.317  25.878  -8.142  0.00  0.00     0.018 C 
HETATM   27  C   UNK N   1      80.742  26.094  -7.646  0.00  0.00     0.018 C 
ENDROOT
BRANCH  15  28
HETATM   28  C   UNK N   1      77.425  35.298  -3.302  0.00  0.00    -0.089 C 
HETATM   29  C   UNK N   1      78.009  35.076  -1.924  0.00  0.00     0.043 C 
HETATM   30  C   UNK N   1      76.094  35.206  -3.479  0.00  0.00     0.014 C 
ENDBRANCH  15  28
BRANCH  23  31
HETATM   31  O   UNK N   1      80.250  25.602  -4.980  0.00  0.00    -0.395 OA
HETATM   32  H   UNK N   1      80.613  24.708  -5.215  0.00  0.00     0.210 HD
ENDBRANCH  23  31
TORSDOF 2
ENDMDL
MODEL 8
REMARK VINA RESULT:      -5.3     13.701     17.094
REMARK  2 active torsions:
REMARK  status: ('A' for Active; 'I' for Inactive)
REMARK    1  A    between atoms: O_1  and  C_24 
REMARK    2  A    between atoms: C_16  and  C_27 
ROOT
HETATM    1  C   UNK N   1      78.365  36.785   0.134  0.00  0.00    -0.032 C 
HETATM    2  C   UNK N   1      78.965  37.465   1.485  0.00  0.00    -0.032 C 
HETATM    3  C   UNK N   1      77.528  37.879  -0.662  0.00  0.00     0.003 C 
HETATM    4  C   UNK N   1      77.749  38.034   2.341  0.00  0.00    -0.000 C 
HETATM    5  C   UNK N   1      77.064  37.523  -2.149  0.00  0.00    -0.035 C 
HETATM    6  C   UNK N   1      78.250  38.569   3.713  0.00  0.00     0.006 C 
HETATM    7  C   UNK N   1      78.934  37.453   4.534  0.00  0.00    -0.039 C 
HETATM    8  C   UNK N   1      78.321  36.997  -2.931  0.00  0.00     0.004 C 
HETATM    9  C   UNK N   1      79.782  36.432   2.361  0.00  0.00     0.011 C 
HETATM   10  C   UNK N   1      79.509  36.281  -0.800  0.00  0.00     0.011 C 
HETATM   11  C   UNK N   1      76.393  38.462   0.228  0.00  0.00     0.006 C 
HETATM   12  C   UNK N   1      76.938  39.067   1.534  0.00  0.00     0.006 C 
HETATM   13  C   UNK N   1      80.183  36.964   3.760  0.00  0.00     0.010 C 
HETATM   14  C   UNK N   1      79.030  35.830  -2.191  0.00  0.00     0.007 C 
HETATM   15  C   UNK N   1      77.266  39.195   4.720  0.00  0.00     0.018 C 
HETATM   16  C   UNK N   1      78.102  36.747  -4.493  0.00  0.00    -0.017 C 
HETATM   17  C   UNK N   1      76.574  38.859  -2.853  0.00  0.00     0.012 C 
HETATM   18  C   UNK N   1      77.493  35.533   0.512  0.00  0.00     0.016 C 
HETATM   19  C   UNK N   1      79.981  38.628   1.139  0.00  0.00     0.016 C 
HETATM   20  C   UNK N   1      79.265  38.235   5.809  0.00  0.00     0.010 C 
HETATM   21  C   UNK N   1      77.982  39.039   6.093  0.00  0.00     0.010 C 
HETATM   22  C   UNK N   1      75.880  36.506  -2.187  0.00  0.00     0.016 C 
HETATM   23  C   UNK N   1      77.105  37.808  -5.120  0.00  0.00     0.126 C 
HETATM   24  C   UNK N   1      77.112  39.096  -4.289  0.00  0.00     0.033 C 
HETATM   25  C   UNK N   1      78.017  36.239   4.903  0.00  0.00     0.015 C 
HETATM   26  C   UNK N   1      79.485  36.926  -5.186  0.00  0.00     0.018 C 
HETATM   27  C   UNK N   1      77.631  35.309  -4.833  0.00  0.00     0.018 C 
ENDROOT
BRANCH  15  28
HETATM   28  C   UNK N   1      76.858  40.635   4.421  0.00  0.00    -0.089 C 
HETATM   29  C   UNK N   1      75.397  41.024   4.351  0.00  0.00     0.043 C 
HETATM   30  C   UNK N   1      77.802  41.570   4.211  0.00  0.00     0.014 C 
ENDBRANCH  15  28
BRANCH  23  31
HETATM   31  O   UNK N   1      75.790  37.325  -5.208  0.00  0.00    -0.395 OA
HETATM   32  H   UNK N   1      75.253  37.794  -4.517  0.00  0.00     0.210 HD
ENDBRANCH  23  31
TORSDOF 2
ENDMDL
MODEL 9
REMARK VINA RESULT:      -5.2      2.870      4.007
REMARK  2 active torsions:
REMARK  status: ('A' for Active; 'I' for Inactive)
REMARK    1  A    between atoms: O_1  and  C_24 
REMARK    2  A    between atoms: C_16  and  C_27 
ROOT
HETATM    1  C   UNK N   1      82.744  24.324   3.182  0.00  0.00    -0.032 C 
HETATM    2  C   UNK N   1      82.144  23.388   1.994  0.00  0.00    -0.032 C 
HETATM    3  C   UNK N   1      81.809  25.601   3.349  0.00  0.00     0.003 C 
HETATM    4  C   UNK N   1      82.067  24.256   0.662  0.00  0.00    -0.000 C 
HETATM    5  C   UNK N   1      82.044  26.530   4.626  0.00  0.00    -0.035 C 
HETATM    6  C   UNK N   1      81.635  23.371  -0.542  0.00  0.00     0.006 C 
HETATM    7  C   UNK N   1      82.636  22.219  -0.780  0.00  0.00    -0.039 C 
HETATM    8  C   UNK N   1      82.080  25.604   5.895  0.00  0.00     0.004 C 
HETATM    9  C   UNK N   1      83.039  22.109   1.733  0.00  0.00     0.011 C 
HETATM   10  C   UNK N   1      82.767  23.563   4.544  0.00  0.00     0.011 C 
HETATM   11  C   UNK N   1      81.702  26.385   2.010  0.00  0.00     0.006 C 
HETATM   12  C   UNK N   1      81.181  25.502   0.863  0.00  0.00     0.006 C 
HETATM   13  C   UNK N   1      82.641  21.304   0.469  0.00  0.00     0.010 C 
HETATM   14  C   UNK N   1      83.111  24.450   5.753  0.00  0.00     0.007 C 
HETATM   15  C   UNK N   1      81.464  23.984  -1.946  0.00  0.00     0.018 C 
HETATM   16  C   UNK N   1      82.136  26.365   7.298  0.00  0.00    -0.017 C 
HETATM   17  C   UNK N   1      80.799  27.506   4.769  0.00  0.00     0.012 C 
HETATM   18  C   UNK N   1      84.229  24.717   2.848  0.00  0.00     0.016 C 
HETATM   19  C   UNK N   1      80.710  22.834   2.369  0.00  0.00     0.016 C 
HETATM   20  C   UNK N   1      82.001  21.574  -2.015  0.00  0.00     0.010 C 
HETATM   21  C   UNK N   1      81.630  22.772  -2.909  0.00  0.00     0.010 C 
HETATM   22  C   UNK N   1      83.326  27.414   4.506  0.00  0.00     0.016 C 
HETATM   23  C   UNK N   1      81.301  27.712   7.265  0.00  0.00     0.126 C 
HETATM   24  C   UNK N   1      80.205  27.630   6.198  0.00  0.00     0.033 C 
HETATM   25  C   UNK N   1      84.096  22.664  -1.130  0.00  0.00     0.015 C 
HETATM   26  C   UNK N   1      81.482  25.427   8.355  0.00  0.00     0.018 C 
HETATM   27  C   UNK N   1      83.576  26.642   7.798  0.00  0.00     0.018 C 
ENDROOT
BRANCH  15  28
HETATM   28  C   UNK N   1      80.161  24.747  -2.168  0.00  0.00    -0.089 C 
HETATM   29  C   UNK N   1      80.180  26.177  -2.665  0.00  0.00     0.043 C 
HETATM   30  C   UNK N   1      78.982  24.150  -1.916  0.00  0.00     0.014 C 
ENDBRANCH  15  28
BRANCH  23  31
HETATM   31  O   UNK N   1      82.104  28.836   7.015  0.00  0.00    -0.395 OA
HETATM   32  H   UNK N   1      81.552  29.490   6.512  0.00  0.00     0.210 HD
ENDBRANCH  23  31
TORSDOF 2
ENDMDL
