MODEL 1
REMARK VINA RESULT:      -4.1      0.000      0.000
REMARK  2 active torsions:
REMARK  status: ('A' for Active; 'I' for Inactive)
REMARK    1  A    between atoms: O_1  and  C_3 
REMARK    2  A    between atoms: O_2  and  C_4 
ROOT
HETATM    1  C   UNK N   1      79.420  28.264   4.643  0.00  0.00     0.098 A 
HETATM    2  C   UNK N   1      78.370  28.463   3.727  0.00  0.00     0.098 A 
HETATM    3  C   UNK N   1      80.449  29.211   4.734  0.00  0.00     0.039 A 
HETATM    4  C   UNK N   1      78.360  29.604   2.913  0.00  0.00     0.039 A 
HETATM    5  C   UNK N   1      80.433  30.348   3.919  0.00  0.00     0.003 A 
HETATM    6  C   UNK N   1      79.391  30.544   3.010  0.00  0.00     0.003 A 
ENDROOT
BRANCH   1   7
HETATM    7  O   UNK N   1      79.455  27.174   5.439  0.00  0.00    -0.358 OA
HETATM    8  H   UNK N   1      79.569  26.281   5.083  0.00  0.00     0.218 HD
ENDBRANCH   1   7
BRANCH   2   9
HETATM    9  O   UNK N   1      77.373  27.556   3.632  0.00  0.00    -0.358 OA
HETATM   10  H   UNK N   1      76.445  27.808   3.737  0.00  0.00     0.218 HD
ENDBRANCH   2   9
TORSDOF 2
ENDMDL
MODEL 2
REMARK VINA RESULT:      -4.1      0.009      2.208
REMARK  2 active torsions:
REMARK  status: ('A' for Active; 'I' for Inactive)
REMARK    1  A    between atoms: O_1  and  C_3 
REMARK    2  A    between atoms: O_2  and  C_4 
ROOT
HETATM    1  C   UNK N   1      78.377  28.455   3.734  0.00  0.00     0.098 A 
HETATM    2  C   UNK N   1      79.432  28.265   4.646  0.00  0.00     0.098 A 
HETATM    3  C   UNK N   1      78.361  29.596   2.919  0.00  0.00     0.039 A 
HETATM    4  C   UNK N   1      80.459  29.216   4.732  0.00  0.00     0.039 A 
HETATM    5  C   UNK N   1      79.388  30.540   3.011  0.00  0.00     0.003 A 
HETATM    6  C   UNK N   1      80.435  30.351   3.916  0.00  0.00     0.003 A 
ENDROOT
BRANCH   1   7
HETATM    7  O   UNK N   1      77.375  27.556   3.629  0.00  0.00    -0.358 OA
HETATM    8  H   UNK N   1      76.689  27.469   4.306  0.00  0.00     0.218 HD
ENDBRANCH   1   7
BRANCH   2   9
HETATM    9  O   UNK N   1      79.456  27.169   5.435  0.00  0.00    -0.358 OA
HETATM   10  H   UNK N   1      79.824  26.329   5.126  0.00  0.00     0.218 HD
ENDBRANCH   2   9
TORSDOF 2
ENDMDL
MODEL 3
REMARK VINA RESULT:      -3.7      3.534      4.601
REMARK  2 active torsions:
REMARK  status: ('A' for Active; 'I' for Inactive)
REMARK    1  A    between atoms: O_1  and  C_3 
REMARK    2  A    between atoms: O_2  and  C_4 
ROOT
HETATM    1  C   UNK N   1      81.108  25.838   7.566  0.00  0.00     0.098 A 
HETATM    2  C   UNK N   1      80.449  26.841   6.830  0.00  0.00     0.098 A 
HETATM    3  C   UNK N   1      82.370  26.098   8.117  0.00  0.00     0.039 A 
HETATM    4  C   UNK N   1      81.059  28.091   6.654  0.00  0.00     0.039 A 
HETATM    5  C   UNK N   1      82.972  27.347   7.937  0.00  0.00     0.003 A 
HETATM    6  C   UNK N   1      82.318  28.342   7.206  0.00  0.00     0.003 A 
ENDROOT
BRANCH   1   7
HETATM    7  O   UNK N   1      80.544  24.625   7.752  0.00  0.00    -0.358 OA
HETATM    8  H   UNK N   1      79.689  24.517   8.194  0.00  0.00     0.218 HD
ENDBRANCH   1   7
BRANCH   2   9
HETATM    9  O   UNK N   1      79.232  26.600   6.296  0.00  0.00    -0.358 OA
HETATM   10  H   UNK N   1      78.996  26.910   5.409  0.00  0.00     0.218 HD
ENDBRANCH   2   9
TORSDOF 2
ENDMDL
MODEL 4
REMARK VINA RESULT:      -3.7      3.534      5.003
REMARK  2 active torsions:
REMARK  status: ('A' for Active; 'I' for Inactive)
REMARK    1  A    between atoms: O_1  and  C_3 
REMARK    2  A    between atoms: O_2  and  C_4 
ROOT
HETATM    1  C   UNK N   1      80.448  26.830   6.833  0.00  0.00     0.098 A 
HETATM    2  C   UNK N   1      81.117  25.836   7.573  0.00  0.00     0.098 A 
HETATM    3  C   UNK N   1      81.051  28.082   6.650  0.00  0.00     0.039 A 
HETATM    4  C   UNK N   1      82.379  26.106   8.120  0.00  0.00     0.039 A 
HETATM    5  C   UNK N   1      82.310  28.343   7.198  0.00  0.00     0.003 A 
HETATM    6  C   UNK N   1      82.974  27.357   7.932  0.00  0.00     0.003 A 
ENDROOT
BRANCH   1   7
HETATM    7  O   UNK N   1      79.231  26.598   6.296  0.00  0.00    -0.358 OA
HETATM    8  H   UNK N   1      78.684  27.311   5.936  0.00  0.00     0.218 HD
ENDBRANCH   1   7
BRANCH   2   9
HETATM    9  O   UNK N   1      80.544  24.627   7.756  0.00  0.00    -0.358 OA
HETATM   10  H   UNK N   1      80.423  24.249   8.639  0.00  0.00     0.218 HD
ENDBRANCH   2   9
TORSDOF 2
ENDMDL
MODEL 5
REMARK VINA RESULT:      -3.7     10.281     11.427
REMARK  2 active torsions:
REMARK  status: ('A' for Active; 'I' for Inactive)
REMARK    1  A    between atoms: O_1  and  C_3 
REMARK    2  A    between atoms: O_2  and  C_4 
ROOT
HETATM    1  C   UNK N   1      76.656  32.184  -5.788  0.00  0.00     0.098 A 
HETATM    2  C   UNK N   1      77.138  32.402  -7.093  0.00  0.00     0.098 A 
HETATM    3  C   UNK N   1      76.622  30.882  -5.271  0.00  0.00     0.039 A 
HETATM    4  C   UNK N   1      77.581  31.318  -7.864  0.00  0.00     0.039 A 
HETATM    5  C   UNK N   1      77.065  29.805  -6.046  0.00  0.00     0.003 A 
HETATM    6  C   UNK N   1      77.543  30.023  -7.340  0.00  0.00     0.003 A 
ENDROOT
BRANCH   1   7
HETATM    7  O   UNK N   1      76.224  33.209  -5.024  0.00  0.00    -0.358 OA
HETATM    8  H   UNK N   1      76.803  33.943  -4.772  0.00  0.00     0.218 HD
ENDBRANCH   1   7
BRANCH   2   9
HETATM    9  O   UNK N   1      77.175  33.654  -7.600  0.00  0.00    -0.358 OA
HETATM   10  H   UNK N   1      77.443  34.413  -7.063  0.00  0.00     0.218 HD
ENDBRANCH   2   9
TORSDOF 2
ENDMDL
MODEL 6
REMARK VINA RESULT:      -3.7      9.604     10.831
REMARK  2 active torsions:
REMARK  status: ('A' for Active; 'I' for Inactive)
REMARK    1  A    between atoms: O_1  and  C_3 
REMARK    2  A    between atoms: O_2  and  C_4 
ROOT
HETATM    1  C   UNK N   1      77.091  30.155  -6.994  0.00  0.00     0.098 A 
HETATM    2  C   UNK N   1      76.710  30.561  -5.701  0.00  0.00     0.098 A 
HETATM    3  C   UNK N   1      77.620  28.872  -7.190  0.00  0.00     0.039 A 
HETATM    4  C   UNK N   1      76.863  29.681  -4.620  0.00  0.00     0.039 A 
HETATM    5  C   UNK N   1      77.770  28.000  -6.107  0.00  0.00     0.003 A 
HETATM    6  C   UNK N   1      77.392  28.404  -4.824  0.00  0.00     0.003 A 
ENDROOT
BRANCH   1   7
HETATM    7  O   UNK N   1      76.955  30.981  -8.053  0.00  0.00    -0.358 OA
HETATM    8  H   UNK N   1      77.245  30.731  -8.942  0.00  0.00     0.218 HD
ENDBRANCH   1   7
BRANCH   2   9
HETATM    9  O   UNK N   1      76.200  31.796  -5.502  0.00  0.00    -0.358 OA
HETATM   10  H   UNK N   1      75.440  31.944  -4.921  0.00  0.00     0.218 HD
ENDBRANCH   2   9
TORSDOF 2
ENDMDL
MODEL 7
REMARK VINA RESULT:      -3.7      9.688     10.837
REMARK  2 active torsions:
REMARK  status: ('A' for Active; 'I' for Inactive)
REMARK    1  A    between atoms: O_1  and  C_3 
REMARK    2  A    between atoms: O_2  and  C_4 
ROOT
HETATM    1  C   UNK N   1      76.731  30.653  -5.888  0.00  0.00     0.098 A 
HETATM    2  C   UNK N   1      77.138  30.099  -7.117  0.00  0.00     0.098 A 
HETATM    3  C   UNK N   1      76.858  29.900  -4.712  0.00  0.00     0.039 A 
HETATM    4  C   UNK N   1      77.666  28.801  -7.155  0.00  0.00     0.039 A 
HETATM    5  C   UNK N   1      77.386  28.606  -4.759  0.00  0.00     0.003 A 
HETATM    6  C   UNK N   1      77.789  28.057  -5.979  0.00  0.00     0.003 A 
ENDROOT
BRANCH   1   7
HETATM    7  O   UNK N   1      76.219  31.900  -5.821  0.00  0.00    -0.358 OA
HETATM    8  H   UNK N   1      75.290  32.086  -6.018  0.00  0.00     0.218 HD
ENDBRANCH   1   7
BRANCH   2   9
HETATM    9  O   UNK N   1      77.020  30.816  -8.255  0.00  0.00    -0.358 OA
HETATM   10  H   UNK N   1      77.706  31.439  -8.537  0.00  0.00     0.218 HD
ENDBRANCH   2   9
TORSDOF 2
ENDMDL
MODEL 8
REMARK VINA RESULT:      -3.6     21.968     23.139
REMARK  2 active torsions:
REMARK  status: ('A' for Active; 'I' for Inactive)
REMARK    1  A    between atoms: O_1  and  C_3 
REMARK    2  A    between atoms: O_2  and  C_4 
ROOT
HETATM    1  C   UNK N   1      68.059  42.868  -9.282  0.00  0.00     0.098 A 
HETATM    2  C   UNK N   1      67.225  43.982  -9.494  0.00  0.00     0.098 A 
HETATM    3  C   UNK N   1      69.132  42.630 -10.151  0.00  0.00     0.039 A 
HETATM    4  C   UNK N   1      67.473  44.844 -10.571  0.00  0.00     0.039 A 
HETATM    5  C   UNK N   1      69.374  43.494 -11.224  0.00  0.00     0.003 A 
HETATM    6  C   UNK N   1      68.546  44.600 -11.433  0.00  0.00     0.003 A 
ENDROOT
BRANCH   1   7
HETATM    7  O   UNK N   1      67.843  42.021  -8.253  0.00  0.00    -0.358 OA
HETATM    8  H   UNK N   1      67.227  42.229  -7.536  0.00  0.00     0.218 HD
ENDBRANCH   1   7
BRANCH   2   9
HETATM    9  O   UNK N   1      66.188  44.219  -8.662  0.00  0.00    -0.358 OA
HETATM   10  H   UNK N   1      66.212  44.936  -8.011  0.00  0.00     0.218 HD
ENDBRANCH   2   9
TORSDOF 2
ENDMDL
MODEL 9
REMARK VINA RESULT:      -3.6      3.963      4.857
REMARK  2 active torsions:
REMARK  status: ('A' for Active; 'I' for Inactive)
REMARK    1  A    between atoms: O_1  and  C_3 
REMARK    2  A    between atoms: O_2  and  C_4 
ROOT
HETATM    1  C   UNK N   1      81.309  27.529   6.901  0.00  0.00     0.098 A 
HETATM    2  C   UNK N   1      80.529  26.372   6.713  0.00  0.00     0.098 A 
HETATM    3  C   UNK N   1      82.706  27.426   6.927  0.00  0.00     0.039 A 
HETATM    4  C   UNK N   1      81.154  25.127   6.554  0.00  0.00     0.039 A 
HETATM    5  C   UNK N   1      83.323  26.181   6.769  0.00  0.00     0.003 A 
HETATM    6  C   UNK N   1      82.549  25.034   6.582  0.00  0.00     0.003 A 
ENDROOT
BRANCH   1   7
HETATM    7  O   UNK N   1      80.733  28.740   7.056  0.00  0.00    -0.358 OA
HETATM    8  H   UNK N   1      80.659  29.372   6.327  0.00  0.00     0.218 HD
ENDBRANCH   1   7
BRANCH   2   9
HETATM    9  O   UNK N   1      79.181  26.461   6.685  0.00  0.00    -0.358 OA
HETATM   10  H   UNK N   1      78.727  27.147   6.175  0.00  0.00     0.218 HD
ENDBRANCH   2   9
TORSDOF 2
ENDMDL
