MODEL 1
REMARK VINA RESULT:      -4.5      0.000      0.000
REMARK  5 active torsions:
REMARK  status: ('A' for Active; 'I' for Inactive)
REMARK    1  A    between atoms: O_1  and  C_7 
REMARK    2  A    between atoms: O_2  and  C_8 
REMARK    3  A    between atoms: O_3  and  C_9 
REMARK    4  A    between atoms: O_4  and  C_12 
REMARK    5  A    between atoms: C_6  and  C_12 
ROOT
HETATM    1  C   UNK N   1      77.608  27.924  -4.815  0.00  0.00     0.043 A 
HETATM    2  C   UNK N   1      76.949  29.705  -6.889  0.00  0.00     0.132 A 
HETATM    3  C   UNK N   1      76.757  30.082  -5.549  0.00  0.00     0.102 A 
HETATM    4  C   UNK N   1      77.472  28.434  -7.190  0.00  0.00     0.102 A 
HETATM    5  C   UNK N   1      77.086  29.193  -4.519  0.00  0.00     0.057 A 
HETATM    6  C   UNK N   1      77.797  27.554  -6.155  0.00  0.00     0.057 A 
ENDROOT
BRANCH   1   7
HETATM    7  C   UNK N   1      77.956  26.984  -3.729  0.00  0.00     0.176 C 
HETATM    8  O   UNK N   1      79.094  26.941  -3.287  0.00  0.00    -0.646 OA
BRANCH   7   9
HETATM    9  O   UNK N   1      77.009  26.165  -3.221  0.00  0.00    -0.773 OA
HETATM   10  H   UNK N   1      77.225  25.272  -2.926  0.00  0.00     0.167 HD
ENDBRANCH   7   9
ENDBRANCH   1   7
BRANCH   3  11
HETATM   11  O   UNK N   1      76.256  31.299  -5.253  0.00  0.00    -0.358 OA
HETATM   12  H   UNK N   1      76.796  31.979  -4.826  0.00  0.00     0.218 HD
ENDBRANCH   3  11
BRANCH   4  13
HETATM   13  O   UNK N   1      77.667  28.045  -8.467  0.00  0.00    -0.358 OA
HETATM   14  H   UNK N   1      77.760  27.114  -8.713  0.00  0.00     0.218 HD
ENDBRANCH   4  13
BRANCH   2  15
HETATM   15  O   UNK N   1      76.636  30.552  -7.892  0.00  0.00    -0.356 OA
HETATM   16  H   UNK N   1      76.236  31.417  -7.728  0.00  0.00     0.218 HD
ENDBRANCH   2  15
TORSDOF 5
ENDMDL
MODEL 2
REMARK VINA RESULT:      -4.5      0.022      2.405
REMARK  5 active torsions:
REMARK  status: ('A' for Active; 'I' for Inactive)
REMARK    1  A    between atoms: O_1  and  C_7 
REMARK    2  A    between atoms: O_2  and  C_8 
REMARK    3  A    between atoms: O_3  and  C_9 
REMARK    4  A    between atoms: O_4  and  C_12 
REMARK    5  A    between atoms: C_6  and  C_12 
ROOT
HETATM    1  C   UNK N   1      77.616  27.904  -4.817  0.00  0.00     0.043 A 
HETATM    2  C   UNK N   1      76.958  29.684  -6.892  0.00  0.00     0.132 A 
HETATM    3  C   UNK N   1      77.484  28.417  -7.192  0.00  0.00     0.102 A 
HETATM    4  C   UNK N   1      76.761  30.061  -5.551  0.00  0.00     0.102 A 
HETATM    5  C   UNK N   1      77.811  27.533  -6.156  0.00  0.00     0.057 A 
HETATM    6  C   UNK N   1      77.090  29.172  -4.524  0.00  0.00     0.057 A 
ENDROOT
BRANCH   1   7
HETATM    7  C   UNK N   1      77.960  26.973  -3.721  0.00  0.00     0.176 C 
HETATM    8  O   UNK N   1      79.092  26.947  -3.263  0.00  0.00    -0.646 OA
BRANCH   7   9
HETATM    9  O   UNK N   1      77.015  26.147  -3.222  0.00  0.00    -0.773 OA
HETATM   10  H   UNK N   1      76.291  26.483  -2.679  0.00  0.00     0.167 HD
ENDBRANCH   7   9
ENDBRANCH   1   7
BRANCH   3  11
HETATM   11  O   UNK N   1      77.676  28.049  -8.475  0.00  0.00    -0.358 OA
HETATM   12  H   UNK N   1      76.959  28.081  -9.124  0.00  0.00     0.218 HD
ENDBRANCH   3  11
BRANCH   4  13
HETATM   13  O   UNK N   1      76.257  31.271  -5.234  0.00  0.00    -0.358 OA
HETATM   14  H   UNK N   1      76.102  31.540  -4.318  0.00  0.00     0.218 HD
ENDBRANCH   4  13
BRANCH   2  15
HETATM   15  O   UNK N   1      76.639  30.546  -7.881  0.00  0.00    -0.356 OA
HETATM   16  H   UNK N   1      76.923  30.407  -8.795  0.00  0.00     0.218 HD
ENDBRANCH   2  15
TORSDOF 5
ENDMDL
MODEL 3
REMARK VINA RESULT:      -4.5      1.582      1.950
REMARK  5 active torsions:
REMARK  status: ('A' for Active; 'I' for Inactive)
REMARK    1  A    between atoms: O_1  and  C_7 
REMARK    2  A    between atoms: O_2  and  C_8 
REMARK    3  A    between atoms: O_3  and  C_9 
REMARK    4  A    between atoms: O_4  and  C_12 
REMARK    5  A    between atoms: C_6  and  C_12 
ROOT
HETATM    1  C   UNK N   1      77.488  29.040  -5.934  0.00  0.00     0.043 A 
HETATM    2  C   UNK N   1      77.008  31.606  -6.979  0.00  0.00     0.132 A 
HETATM    3  C   UNK N   1      76.539  31.268  -5.698  0.00  0.00     0.102 A 
HETATM    4  C   UNK N   1      77.718  30.658  -7.737  0.00  0.00     0.102 A 
HETATM    5  C   UNK N   1      76.780  29.989  -5.181  0.00  0.00     0.057 A 
HETATM    6  C   UNK N   1      77.953  29.384  -7.213  0.00  0.00     0.057 A 
ENDROOT
BRANCH   1   7
HETATM    7  C   UNK N   1      77.744  27.689  -5.391  0.00  0.00     0.176 C 
HETATM    8  O   UNK N   1      78.816  27.137  -5.584  0.00  0.00    -0.646 OA
BRANCH   7   9
HETATM    9  O   UNK N   1      76.786  27.061  -4.676  0.00  0.00    -0.773 OA
HETATM   10  H   UNK N   1      75.885  26.973  -5.012  0.00  0.00     0.167 HD
ENDBRANCH   7   9
ENDBRANCH   1   7
BRANCH   3  11
HETATM   11  O   UNK N   1      75.858  32.172  -4.965  0.00  0.00    -0.358 OA
HETATM   12  H   UNK N   1      75.042  31.938  -4.502  0.00  0.00     0.218 HD
ENDBRANCH   3  11
BRANCH   4  13
HETATM   13  O   UNK N   1      78.179  30.955  -8.969  0.00  0.00    -0.358 OA
HETATM   14  H   UNK N   1      78.294  30.280  -9.653  0.00  0.00     0.218 HD
ENDBRANCH   4  13
BRANCH   2  15
HETATM   15  O   UNK N   1      76.783  32.836  -7.489  0.00  0.00    -0.356 OA
HETATM   16  H   UNK N   1      76.807  33.009  -8.440  0.00  0.00     0.218 HD
ENDBRANCH   2  15
TORSDOF 5
ENDMDL
MODEL 4
REMARK VINA RESULT:      -4.5      1.532      2.955
REMARK  5 active torsions:
REMARK  status: ('A' for Active; 'I' for Inactive)
REMARK    1  A    between atoms: O_1  and  C_7 
REMARK    2  A    between atoms: O_2  and  C_8 
REMARK    3  A    between atoms: O_3  and  C_9 
REMARK    4  A    between atoms: O_4  and  C_12 
REMARK    5  A    between atoms: C_6  and  C_12 
ROOT
HETATM    1  C   UNK N   1      77.549  29.122  -5.800  0.00  0.00     0.043 A 
HETATM    2  C   UNK N   1      77.015  31.627  -6.963  0.00  0.00     0.132 A 
HETATM    3  C   UNK N   1      77.753  30.663  -7.671  0.00  0.00     0.102 A 
HETATM    4  C   UNK N   1      76.544  31.334  -5.670  0.00  0.00     0.102 A 
HETATM    5  C   UNK N   1      78.017  29.418  -7.090  0.00  0.00     0.057 A 
HETATM    6  C   UNK N   1      76.812  30.089  -5.097  0.00  0.00     0.057 A 
ENDROOT
BRANCH   1   7
HETATM    7  C   UNK N   1      77.826  27.808  -5.183  0.00  0.00     0.176 C 
HETATM    8  O   UNK N   1      78.974  27.408  -5.067  0.00  0.00    -0.646 OA
BRANCH   7   9
HETATM    9  O   UNK N   1      76.803  27.045  -4.743  0.00  0.00    -0.773 OA
HETATM   10  H   UNK N   1      76.942  26.129  -4.469  0.00  0.00     0.167 HD
ENDBRANCH   7   9
ENDBRANCH   1   7
BRANCH   3  11
HETATM   11  O   UNK N   1      78.208  30.936  -8.912  0.00  0.00    -0.358 OA
HETATM   12  H   UNK N   1      77.962  31.749  -9.374  0.00  0.00     0.218 HD
ENDBRANCH   3  11
BRANCH   4  13
HETATM   13  O   UNK N   1      75.833  32.240  -4.966  0.00  0.00    -0.358 OA
HETATM   14  H   UNK N   1      75.650  33.127  -5.307  0.00  0.00     0.218 HD
ENDBRANCH   4  13
BRANCH   2  15
HETATM   15  O   UNK N   1      76.753  32.832  -7.512  0.00  0.00    -0.356 OA
HETATM   16  H   UNK N   1      75.870  33.225  -7.491  0.00  0.00     0.218 HD
ENDBRANCH   2  15
TORSDOF 5
ENDMDL
MODEL 5
REMARK VINA RESULT:      -4.4      1.328      3.955
REMARK  5 active torsions:
REMARK  status: ('A' for Active; 'I' for Inactive)
REMARK    1  A    between atoms: O_1  and  C_7 
REMARK    2  A    between atoms: O_2  and  C_8 
REMARK    3  A    between atoms: O_3  and  C_9 
REMARK    4  A    between atoms: O_4  and  C_12 
REMARK    5  A    between atoms: C_6  and  C_12 
ROOT
HETATM    1  C   UNK N   1      76.940  30.385  -6.200  0.00  0.00     0.043 A 
HETATM    2  C   UNK N   1      77.649  27.666  -6.318  0.00  0.00     0.132 A 
HETATM    3  C   UNK N   1      77.303  28.252  -5.088  0.00  0.00     0.102 A 
HETATM    4  C   UNK N   1      77.640  28.444  -7.490  0.00  0.00     0.102 A 
HETATM    5  C   UNK N   1      76.951  29.606  -5.033  0.00  0.00     0.057 A 
HETATM    6  C   UNK N   1      77.287  29.794  -7.425  0.00  0.00     0.057 A 
ENDROOT
BRANCH   1   7
HETATM    7  C   UNK N   1      76.569  31.815  -6.145  0.00  0.00     0.176 C 
HETATM    8  O   UNK N   1      76.894  32.574  -7.045  0.00  0.00    -0.646 OA
BRANCH   7   9
HETATM    9  O   UNK N   1      75.865  32.285  -5.093  0.00  0.00    -0.773 OA
HETATM   10  H   UNK N   1      75.512  31.691  -4.420  0.00  0.00     0.167 HD
ENDBRANCH   7   9
ENDBRANCH   1   7
BRANCH   3  11
HETATM   11  O   UNK N   1      77.310  27.513  -3.960  0.00  0.00    -0.358 OA
HETATM   12  H   UNK N   1      77.142  26.560  -3.977  0.00  0.00     0.218 HD
ENDBRANCH   3  11
BRANCH   4  13
HETATM   13  O   UNK N   1      77.967  27.908  -8.684  0.00  0.00    -0.358 OA
HETATM   14  H   UNK N   1      78.868  27.621  -8.889  0.00  0.00     0.218 HD
ENDBRANCH   4  13
BRANCH   2  15
HETATM   15  O   UNK N   1      77.991  26.362  -6.385  0.00  0.00    -0.356 OA
HETATM   16  H   UNK N   1      77.454  25.669  -5.976  0.00  0.00     0.218 HD
ENDBRANCH   2  15
TORSDOF 5
ENDMDL
MODEL 6
REMARK VINA RESULT:      -4.4      1.333      4.405
REMARK  5 active torsions:
REMARK  status: ('A' for Active; 'I' for Inactive)
REMARK    1  A    between atoms: O_1  and  C_7 
REMARK    2  A    between atoms: O_2  and  C_8 
REMARK    3  A    between atoms: O_3  and  C_9 
REMARK    4  A    between atoms: O_4  and  C_12 
REMARK    5  A    between atoms: C_6  and  C_12 
ROOT
HETATM    1  C   UNK N   1      76.937  30.385  -6.214  0.00  0.00     0.043 A 
HETATM    2  C   UNK N   1      77.652  27.668  -6.334  0.00  0.00     0.132 A 
HETATM    3  C   UNK N   1      77.647  28.448  -7.503  0.00  0.00     0.102 A 
HETATM    4  C   UNK N   1      77.298  28.250  -5.104  0.00  0.00     0.102 A 
HETATM    5  C   UNK N   1      77.290  29.800  -7.440  0.00  0.00     0.057 A 
HETATM    6  C   UNK N   1      76.944  29.601  -5.050  0.00  0.00     0.057 A 
ENDROOT
BRANCH   1   7
HETATM    7  C   UNK N   1      76.560  31.812  -6.144  0.00  0.00     0.176 C 
HETATM    8  O   UNK N   1      76.879  32.582  -7.037  0.00  0.00    -0.646 OA
BRANCH   7   9
HETATM    9  O   UNK N   1      75.857  32.269  -5.085  0.00  0.00    -0.773 OA
HETATM   10  H   UNK N   1      76.201  32.197  -4.186  0.00  0.00     0.167 HD
ENDBRANCH   7   9
ENDBRANCH   1   7
BRANCH   3  11
HETATM   11  O   UNK N   1      77.985  27.896  -8.687  0.00  0.00    -0.358 OA
HETATM   12  H   UNK N   1      78.878  27.565  -8.855  0.00  0.00     0.218 HD
ENDBRANCH   3  11
BRANCH   4  13
HETATM   13  O   UNK N   1      77.295  27.526  -3.966  0.00  0.00    -0.358 OA
HETATM   14  H   UNK N   1      77.643  27.874  -3.133  0.00  0.00     0.218 HD
ENDBRANCH   4  13
BRANCH   2  15
HETATM   15  O   UNK N   1      77.994  26.363  -6.382  0.00  0.00    -0.356 OA
HETATM   16  H   UNK N   1      77.436  25.701  -6.812  0.00  0.00     0.218 HD
ENDBRANCH   2  15
TORSDOF 5
ENDMDL
MODEL 7
REMARK VINA RESULT:      -4.3     12.583     14.493
REMARK  5 active torsions:
REMARK  status: ('A' for Active; 'I' for Inactive)
REMARK    1  A    between atoms: O_1  and  C_7 
REMARK    2  A    between atoms: O_2  and  C_8 
REMARK    3  A    between atoms: O_3  and  C_9 
REMARK    4  A    between atoms: O_4  and  C_12 
REMARK    5  A    between atoms: C_6  and  C_12 
ROOT
HETATM    1  C   UNK N   1      83.279  27.627   7.254  0.00  0.00     0.043 A 
HETATM    2  C   UNK N   1      81.379  25.570   7.515  0.00  0.00     0.132 A 
HETATM    3  C   UNK N   1      82.080  26.029   8.643  0.00  0.00     0.102 A 
HETATM    4  C   UNK N   1      81.631  26.142   6.255  0.00  0.00     0.102 A 
HETATM    5  C   UNK N   1      83.026  27.053   8.510  0.00  0.00     0.057 A 
HETATM    6  C   UNK N   1      82.576  27.164   6.131  0.00  0.00     0.057 A 
ENDROOT
BRANCH   1   7
HETATM    7  C   UNK N   1      84.277  28.708   7.110  0.00  0.00     0.176 C 
HETATM    8  O   UNK N   1      85.318  28.513   6.500  0.00  0.00    -0.646 OA
BRANCH   7   9
HETATM    9  O   UNK N   1      84.036  29.920   7.654  0.00  0.00    -0.773 OA
HETATM   10  H   UNK N   1      84.391  30.726   7.259  0.00  0.00     0.167 HD
ENDBRANCH   7   9
ENDBRANCH   1   7
BRANCH   3  11
HETATM   11  O   UNK N   1      81.845  25.486   9.855  0.00  0.00    -0.358 OA
HETATM   12  H   UNK N   1      81.938  24.536  10.011  0.00  0.00     0.218 HD
ENDBRANCH   3  11
BRANCH   4  13
HETATM   13  O   UNK N   1      80.972  25.721   5.155  0.00  0.00    -0.358 OA
HETATM   14  H   UNK N   1      80.325  26.277   4.699  0.00  0.00     0.218 HD
ENDBRANCH   4  13
BRANCH   2  15
HETATM   15  O   UNK N   1      80.465  24.584   7.630  0.00  0.00    -0.356 OA
HETATM   16  H   UNK N   1      79.875  24.343   6.903  0.00  0.00     0.218 HD
ENDBRANCH   2  15
TORSDOF 5
ENDMDL
MODEL 8
REMARK VINA RESULT:      -4.1      8.498      9.657
REMARK  5 active torsions:
REMARK  status: ('A' for Active; 'I' for Inactive)
REMARK    1  A    between atoms: O_1  and  C_7 
REMARK    2  A    between atoms: O_2  and  C_8 
REMARK    3  A    between atoms: O_3  and  C_9 
REMARK    4  A    between atoms: O_4  and  C_12 
REMARK    5  A    between atoms: C_6  and  C_12 
ROOT
HETATM    1  C   UNK N   1      76.227  36.744  -1.183  0.00  0.00     0.043 A 
HETATM    2  C   UNK N   1      74.301  37.940  -2.847  0.00  0.00     0.132 A 
HETATM    3  C   UNK N   1      74.832  38.652  -1.758  0.00  0.00     0.102 A 
HETATM    4  C   UNK N   1      74.736  36.626  -3.102  0.00  0.00     0.102 A 
HETATM    5  C   UNK N   1      75.791  38.054  -0.932  0.00  0.00     0.057 A 
HETATM    6  C   UNK N   1      75.693  36.038  -2.272  0.00  0.00     0.057 A 
ENDROOT
BRANCH   1   7
HETATM    7  C   UNK N   1      77.239  36.109  -0.312  0.00  0.00     0.176 C 
HETATM    8  O   UNK N   1      78.396  35.998  -0.687  0.00  0.00    -0.646 OA
BRANCH   7   9
HETATM    9  O   UNK N   1      76.883  35.650   0.907  0.00  0.00    -0.773 OA
HETATM   10  H   UNK N   1      77.529  35.562   1.618  0.00  0.00     0.167 HD
ENDBRANCH   7   9
ENDBRANCH   1   7
BRANCH   3  11
HETATM   11  O   UNK N   1      74.420  39.912  -1.507  0.00  0.00    -0.358 OA
HETATM   12  H   UNK N   1      74.815  40.443  -0.802  0.00  0.00     0.218 HD
ENDBRANCH   3  11
BRANCH   4  13
HETATM   13  O   UNK N   1      74.243  35.919  -4.140  0.00  0.00    -0.358 OA
HETATM   14  H   UNK N   1      74.027  34.979  -4.064  0.00  0.00     0.218 HD
ENDBRANCH   4  13
BRANCH   2  15
HETATM   15  O   UNK N   1      73.376  38.505  -3.652  0.00  0.00    -0.356 OA
HETATM   16  H   UNK N   1      73.154  39.445  -3.598  0.00  0.00     0.218 HD
ENDBRANCH   2  15
TORSDOF 5
ENDMDL
MODEL 9
REMARK VINA RESULT:      -4.1     12.749     14.728
REMARK  5 active torsions:
REMARK  status: ('A' for Active; 'I' for Inactive)
REMARK    1  A    between atoms: O_1  and  C_7 
REMARK    2  A    between atoms: O_2  and  C_8 
REMARK    3  A    between atoms: O_3  and  C_9 
REMARK    4  A    between atoms: O_4  and  C_12 
REMARK    5  A    between atoms: C_6  and  C_12 
ROOT
HETATM    1  C   UNK N   1      75.725  19.200 -17.540  0.00  0.00     0.043 A 
HETATM    2  C   UNK N   1      76.514  20.513 -15.182  0.00  0.00     0.132 A 
HETATM    3  C   UNK N   1      75.939  21.243 -16.236  0.00  0.00     0.102 A 
HETATM    4  C   UNK N   1      76.694  19.124 -15.310  0.00  0.00     0.102 A 
HETATM    5  C   UNK N   1      75.547  20.586 -17.409  0.00  0.00     0.057 A 
HETATM    6  C   UNK N   1      76.300  18.477 -16.483  0.00  0.00     0.057 A 
ENDROOT
BRANCH   1   7
HETATM    7  C   UNK N   1      75.312  18.504 -18.776  0.00  0.00     0.176 C 
HETATM    8  O   UNK N   1      75.580  18.974 -19.871  0.00  0.00    -0.646 OA
BRANCH   7   9
HETATM    9  O   UNK N   1      74.634  17.338 -18.696  0.00  0.00    -0.773 OA
HETATM   10  H   UNK N   1      73.736  17.304 -18.343  0.00  0.00     0.167 HD
ENDBRANCH   7   9
ENDBRANCH   1   7
BRANCH   3  11
HETATM   11  O   UNK N   1      75.764  22.576 -16.121  0.00  0.00    -0.358 OA
HETATM   12  H   UNK N   1      75.194  22.954 -15.437  0.00  0.00     0.218 HD
ENDBRANCH   3  11
BRANCH   4  13
HETATM   13  O   UNK N   1      77.244  18.398 -14.314  0.00  0.00    -0.358 OA
HETATM   14  H   UNK N   1      76.804  18.281 -13.460  0.00  0.00     0.218 HD
ENDBRANCH   4  13
BRANCH   2  15
HETATM   15  O   UNK N   1      76.897  21.134 -14.046  0.00  0.00    -0.356 OA
HETATM   16  H   UNK N   1      77.222  20.645 -13.277  0.00  0.00     0.218 HD
ENDBRANCH   2  15
TORSDOF 5
ENDMDL
