MODEL 1
REMARK VINA RESULT:      -5.7      0.000      0.000
REMARK  4 active torsions:
REMARK  status: ('A' for Active; 'I' for Inactive)
REMARK    1  A    between atoms: O_3  and  C_12 
REMARK    2  A    between atoms: O_4  and  C_17 
REMARK    3  A    between atoms: O_5  and  C_20 
REMARK    4  A    between atoms: C_6  and  C_8 
ROOT
HETATM    1  O   UNK N   1      48.286  15.166  14.667  0.00  0.00    -0.340 OA
HETATM    2  O   UNK N   1      49.615  18.744  13.446  0.00  0.00    -0.292 OA
HETATM    3  C   UNK N   1      48.966  15.235  13.460  0.00  0.00     0.169 C 
HETATM    4  C   UNK N   1      49.960  16.408  13.476  0.00  0.00     0.121 C 
HETATM    5  C   UNK N   1      48.040  17.550  14.749  0.00  0.00     0.076 A 
HETATM    6  C   UNK N   1      49.211  17.660  13.837  0.00  0.00     0.167 C 
HETATM    7  C   UNK N   1      47.645  16.259  15.159  0.00  0.00     0.089 A 
HETATM    8  C   UNK N   1      47.336  18.676  15.218  0.00  0.00     0.085 A 
HETATM    9  C   UNK N   1      46.582  16.098  16.054  0.00  0.00     0.074 A 
HETATM   10  C   UNK N   1      46.260  18.501  16.098  0.00  0.00     0.074 A 
HETATM   11  C   UNK N   1      45.885  17.219  16.521  0.00  0.00     0.071 A 
ENDROOT
BRANCH   3  12
HETATM   12  C   UNK N   1      49.647  13.928  13.156  0.00  0.00    -0.028 A 
HETATM   13  C   UNK N   1      50.710  13.889  12.236  0.00  0.00     0.012 A 
HETATM   14  C   UNK N   1      51.356  12.681  11.960  0.00  0.00     0.037 A 
HETATM   15  C   UNK N   1      50.951  11.506  12.601  0.00  0.00     0.065 A 
HETATM   16  C   UNK N   1      49.890  11.541  13.516  0.00  0.00     0.037 A 
HETATM   17  C   UNK N   1      49.238  12.744  13.789  0.00  0.00     0.012 A 
BRANCH  15  18
HETATM   18  O   UNK N   1      51.586  10.348  12.335  0.00  0.00    -0.361 OA
HETATM   19  H   UNK N   1      51.831  10.102  11.431  0.00  0.00     0.217 HD
ENDBRANCH  15  18
ENDBRANCH   3  12
BRANCH   8  20
HETATM   20  O   UNK N   1      47.688  19.918  14.827  0.00  0.00    -0.360 OA
HETATM   21  H   UNK N   1      47.286  20.341  14.055  0.00  0.00     0.217 HD
ENDBRANCH   8  20
BRANCH  11  22
HETATM   22  O   UNK N   1      44.851  17.056  17.370  0.00  0.00    -0.361 OA
HETATM   23  H   UNK N   1      44.001  16.708  17.064  0.00  0.00     0.217 HD
ENDBRANCH  11  22
TORSDOF 4
ENDMDL
MODEL 2
REMARK VINA RESULT:      -5.6     37.711     38.414
REMARK  4 active torsions:
REMARK  status: ('A' for Active; 'I' for Inactive)
REMARK    1  A    between atoms: O_3  and  C_12 
REMARK    2  A    between atoms: O_4  and  C_17 
REMARK    3  A    between atoms: O_5  and  C_20 
REMARK    4  A    between atoms: C_6  and  C_8 
ROOT
HETATM    1  O   UNK N   1      76.377  37.600   0.395  0.00  0.00    -0.340 OA
HETATM    2  O   UNK N   1      78.379  34.482  -1.134  0.00  0.00    -0.292 OA
HETATM    3  C   UNK N   1      76.960  36.699   1.276  0.00  0.00     0.169 C 
HETATM    4  C   UNK N   1      78.190  36.043   0.628  0.00  0.00     0.121 C 
HETATM    5  C   UNK N   1      76.682  36.102  -1.453  0.00  0.00     0.076 A 
HETATM    6  C   UNK N   1      77.773  35.442  -0.685  0.00  0.00     0.167 C 
HETATM    7  C   UNK N   1      76.039  37.211  -0.863  0.00  0.00     0.089 A 
HETATM    8  C   UNK N   1      76.288  35.668  -2.734  0.00  0.00     0.085 A 
HETATM    9  C   UNK N   1      75.041  37.900  -1.559  0.00  0.00     0.074 A 
HETATM   10  C   UNK N   1      75.271  36.354  -3.412  0.00  0.00     0.074 A 
HETATM   11  C   UNK N   1      74.652  37.469  -2.833  0.00  0.00     0.071 A 
ENDROOT
BRANCH   3  12
HETATM   12  C   UNK N   1      77.304  37.372   2.577  0.00  0.00    -0.028 A 
HETATM   13  C   UNK N   1      77.170  38.766   2.703  0.00  0.00     0.012 A 
HETATM   14  C   UNK N   1      77.475  39.395   3.912  0.00  0.00     0.037 A 
HETATM   15  C   UNK N   1      77.909  38.640   5.006  0.00  0.00     0.065 A 
HETATM   16  C   UNK N   1      78.046  37.250   4.884  0.00  0.00     0.037 A 
HETATM   17  C   UNK N   1      77.751  36.620   3.675  0.00  0.00     0.012 A 
BRANCH  15  18
HETATM   18  O   UNK N   1      78.191  39.255   6.172  0.00  0.00    -0.361 OA
HETATM   19  H   UNK N   1      77.570  39.240   6.914  0.00  0.00     0.217 HD
ENDBRANCH  15  18
ENDBRANCH   3  12
BRANCH   8  20
HETATM   20  O   UNK N   1      76.879  34.601  -3.309  0.00  0.00    -0.360 OA
HETATM   21  H   UNK N   1      76.592  34.264  -4.170  0.00  0.00     0.217 HD
ENDBRANCH   8  20
BRANCH  11  22
HETATM   22  O   UNK N   1      73.677  38.126  -3.491  0.00  0.00    -0.361 OA
HETATM   23  H   UNK N   1      73.346  38.980  -3.176  0.00  0.00     0.217 HD
ENDBRANCH  11  22
TORSDOF 4
ENDMDL
MODEL 3
REMARK VINA RESULT:      -5.5     35.682     37.781
REMARK  4 active torsions:
REMARK  status: ('A' for Active; 'I' for Inactive)
REMARK    1  A    between atoms: O_3  and  C_12 
REMARK    2  A    between atoms: O_4  and  C_17 
REMARK    3  A    between atoms: O_5  and  C_20 
REMARK    4  A    between atoms: C_6  and  C_8 
ROOT
HETATM    1  O   UNK N   1      77.893  28.618  -4.868  0.00  0.00    -0.340 OA
HETATM    2  O   UNK N   1      79.180  28.573  -8.663  0.00  0.00    -0.292 OA
HETATM    3  C   UNK N   1      78.060  27.388  -5.489  0.00  0.00     0.169 C 
HETATM    4  C   UNK N   1      79.150  27.482  -6.569  0.00  0.00     0.121 C 
HETATM    5  C   UNK N   1      78.063  29.779  -6.960  0.00  0.00     0.076 A 
HETATM    6  C   UNK N   1      78.797  28.604  -7.505  0.00  0.00     0.167 C 
HETATM    7  C   UNK N   1      77.664  29.736  -5.607  0.00  0.00     0.089 A 
HETATM    8  C   UNK N   1      77.773  30.918  -7.736  0.00  0.00     0.085 A 
HETATM    9  C   UNK N   1      77.015  30.831  -5.028  0.00  0.00     0.074 A 
HETATM   10  C   UNK N   1      77.103  32.000  -7.151  0.00  0.00     0.074 A 
HETATM   11  C   UNK N   1      76.729  31.963  -5.801  0.00  0.00     0.071 A 
ENDROOT
BRANCH   3  12
HETATM   12  C   UNK N   1      78.365  26.317  -4.477  0.00  0.00    -0.028 A 
HETATM   13  C   UNK N   1      79.042  25.151  -4.873  0.00  0.00     0.012 A 
HETATM   14  C   UNK N   1      79.341  24.159  -3.936  0.00  0.00     0.037 A 
HETATM   15  C   UNK N   1      78.972  24.324  -2.597  0.00  0.00     0.065 A 
HETATM   16  C   UNK N   1      78.294  25.484  -2.199  0.00  0.00     0.037 A 
HETATM   17  C   UNK N   1      77.987  26.473  -3.134  0.00  0.00     0.012 A 
BRANCH  15  18
HETATM   18  O   UNK N   1      79.272  23.366  -1.699  0.00  0.00    -0.361 OA
HETATM   19  H   UNK N   1      78.809  23.305  -0.851  0.00  0.00     0.217 HD
ENDBRANCH  15  18
ENDBRANCH   3  12
BRANCH   8  20
HETATM   20  O   UNK N   1      78.132  30.973  -9.035  0.00  0.00    -0.360 OA
HETATM   21  H   UNK N   1      78.463  31.789  -9.437  0.00  0.00     0.217 HD
ENDBRANCH   8  20
BRANCH  11  22
HETATM   22  O   UNK N   1      76.088  33.008  -5.242  0.00  0.00    -0.361 OA
HETATM   23  H   UNK N   1      76.291  33.919  -5.501  0.00  0.00     0.217 HD
ENDBRANCH  11  22
TORSDOF 4
ENDMDL
MODEL 4
REMARK VINA RESULT:      -5.5     37.113     38.262
REMARK  4 active torsions:
REMARK  status: ('A' for Active; 'I' for Inactive)
REMARK    1  A    between atoms: O_3  and  C_12 
REMARK    2  A    between atoms: O_4  and  C_17 
REMARK    3  A    between atoms: O_5  and  C_20 
REMARK    4  A    between atoms: C_6  and  C_8 
ROOT
HETATM    1  O   UNK N   1      77.214  36.861   2.425  0.00  0.00    -0.340 OA
HETATM    2  O   UNK N   1      76.399  40.566   1.132  0.00  0.00    -0.292 OA
HETATM    3  C   UNK N   1      77.778  37.931   3.104  0.00  0.00     0.169 C 
HETATM    4  C   UNK N   1      76.882  39.174   2.977  0.00  0.00     0.121 C 
HETATM    5  C   UNK N   1      76.574  38.268   0.591  0.00  0.00     0.076 A 
HETATM    6  C   UNK N   1      76.630  39.431   1.518  0.00  0.00     0.167 C 
HETATM    7  C   UNK N   1      76.847  36.989   1.122  0.00  0.00     0.089 A 
HETATM    8  C   UNK N   1      76.250  38.401  -0.774  0.00  0.00     0.085 A 
HETATM    9  C   UNK N   1      76.762  35.855   0.308  0.00  0.00     0.074 A 
HETATM   10  C   UNK N   1      76.189  37.259  -1.583  0.00  0.00     0.074 A 
HETATM   11  C   UNK N   1      76.437  35.989  -1.047  0.00  0.00     0.071 A 
ENDROOT
BRANCH   3  12
HETATM   12  C   UNK N   1      78.039  37.573   4.542  0.00  0.00    -0.028 A 
HETATM   13  C   UNK N   1      78.097  38.583   5.517  0.00  0.00     0.012 A 
HETATM   14  C   UNK N   1      78.324  38.256   6.856  0.00  0.00     0.037 A 
HETATM   15  C   UNK N   1      78.490  36.920   7.234  0.00  0.00     0.065 A 
HETATM   16  C   UNK N   1      78.436  35.910   6.264  0.00  0.00     0.037 A 
HETATM   17  C   UNK N   1      78.217  36.234   4.924  0.00  0.00     0.012 A 
BRANCH  15  18
HETATM   18  O   UNK N   1      78.700  36.613   8.529  0.00  0.00    -0.361 OA
HETATM   19  H   UNK N   1      79.569  36.326   8.846  0.00  0.00     0.217 HD
ENDBRANCH  15  18
ENDBRANCH   3  12
BRANCH   8  20
HETATM   20  O   UNK N   1      76.001  39.615  -1.305  0.00  0.00    -0.360 OA
HETATM   21  H   UNK N   1      76.239  40.431  -0.842  0.00  0.00     0.217 HD
ENDBRANCH   8  20
BRANCH  11  22
HETATM   22  O   UNK N   1      76.374  34.894  -1.829  0.00  0.00    -0.361 OA
HETATM   23  H   UNK N   1      76.835  34.857  -2.681  0.00  0.00     0.217 HD
ENDBRANCH  11  22
TORSDOF 4
ENDMDL
MODEL 5
REMARK VINA RESULT:      -5.2     35.588     38.017
REMARK  4 active torsions:
REMARK  status: ('A' for Active; 'I' for Inactive)
REMARK    1  A    between atoms: O_3  and  C_12 
REMARK    2  A    between atoms: O_4  and  C_17 
REMARK    3  A    between atoms: O_5  and  C_20 
REMARK    4  A    between atoms: C_6  and  C_8 
ROOT
HETATM    1  O   UNK N   1      78.023  27.716  -4.817  0.00  0.00    -0.340 OA
HETATM    2  O   UNK N   1      79.419  25.054  -7.468  0.00  0.00    -0.292 OA
HETATM    3  C   UNK N   1      78.615  28.195  -5.976  0.00  0.00     0.169 C 
HETATM    4  C   UNK N   1      78.448  27.178  -7.117  0.00  0.00     0.121 C 
HETATM    5  C   UNK N   1      78.869  25.506  -5.210  0.00  0.00     0.076 A 
HETATM    6  C   UNK N   1      78.981  25.851  -6.653  0.00  0.00     0.167 C 
HETATM    7  C   UNK N   1      78.343  26.484  -4.338  0.00  0.00     0.089 A 
HETATM    8  C   UNK N   1      79.253  24.251  -4.699  0.00  0.00     0.085 A 
HETATM    9  C   UNK N   1      78.170  26.198  -2.981  0.00  0.00     0.074 A 
HETATM   10  C   UNK N   1      79.094  23.984  -3.332  0.00  0.00     0.074 A 
HETATM   11  C   UNK N   1      78.550  24.949  -2.475  0.00  0.00     0.071 A 
ENDROOT
BRANCH   3  12
HETATM   12  C   UNK N   1      78.057  29.544  -6.342  0.00  0.00    -0.028 A 
HETATM   13  C   UNK N   1      78.339  30.101  -7.601  0.00  0.00     0.012 A 
HETATM   14  C   UNK N   1      77.813  31.347  -7.952  0.00  0.00     0.037 A 
HETATM   15  C   UNK N   1      76.998  32.043  -7.054  0.00  0.00     0.065 A 
HETATM   16  C   UNK N   1      76.717  31.491  -5.796  0.00  0.00     0.037 A 
HETATM   17  C   UNK N   1      77.247  30.251  -5.440  0.00  0.00     0.012 A 
BRANCH  15  18
HETATM   18  O   UNK N   1      76.488  33.240  -7.405  0.00  0.00    -0.361 OA
HETATM   19  H   UNK N   1      75.861  33.327  -8.137  0.00  0.00     0.217 HD
ENDBRANCH  15  18
ENDBRANCH   3  12
BRANCH   8  20
HETATM   20  O   UNK N   1      79.771  23.308  -5.512  0.00  0.00    -0.360 OA
HETATM   21  H   UNK N   1      79.368  23.095  -6.365  0.00  0.00     0.217 HD
ENDBRANCH   8  20
BRANCH  11  22
HETATM   22  O   UNK N   1      78.397  24.686  -1.162  0.00  0.00    -0.361 OA
HETATM   23  H   UNK N   1      79.098  24.885  -0.525  0.00  0.00     0.217 HD
ENDBRANCH  11  22
TORSDOF 4
ENDMDL
MODEL 6
REMARK VINA RESULT:      -5.1     37.149     37.733
REMARK  4 active torsions:
REMARK  status: ('A' for Active; 'I' for Inactive)
REMARK    1  A    between atoms: O_3  and  C_12 
REMARK    2  A    between atoms: O_4  and  C_17 
REMARK    3  A    between atoms: O_5  and  C_20 
REMARK    4  A    between atoms: C_6  and  C_8 
ROOT
HETATM    1  O   UNK N   1      77.294  39.281   8.085  0.00  0.00    -0.340 OA
HETATM    2  O   UNK N   1      78.691  37.138  11.171  0.00  0.00    -0.292 OA
HETATM    3  C   UNK N   1      78.272  38.330   7.833  0.00  0.00     0.169 C 
HETATM    4  C   UNK N   1      78.187  37.193   8.865  0.00  0.00     0.121 C 
HETATM    5  C   UNK N   1      77.673  39.151  10.450  0.00  0.00     0.076 A 
HETATM    6  C   UNK N   1      78.248  37.794  10.241  0.00  0.00     0.167 C 
HETATM    7  C   UNK N   1      77.175  39.836   9.321  0.00  0.00     0.089 A 
HETATM    8  C   UNK N   1      77.599  39.755  11.721  0.00  0.00     0.085 A 
HETATM    9  C   UNK N   1      76.580  41.093   9.465  0.00  0.00     0.074 A 
HETATM   10  C   UNK N   1      77.020  41.024  11.849  0.00  0.00     0.074 A 
HETATM   11  C   UNK N   1      76.505  41.691  10.729  0.00  0.00     0.071 A 
ENDROOT
BRANCH   3  12
HETATM   12  C   UNK N   1      78.165  37.816   6.423  0.00  0.00    -0.028 A 
HETATM   13  C   UNK N   1      78.383  36.454   6.155  0.00  0.00     0.012 A 
HETATM   14  C   UNK N   1      78.272  35.968   4.850  0.00  0.00     0.037 A 
HETATM   15  C   UNK N   1      77.939  36.835   3.804  0.00  0.00     0.065 A 
HETATM   16  C   UNK N   1      77.724  38.195   4.067  0.00  0.00     0.037 A 
HETATM   17  C   UNK N   1      77.842  38.685   5.368  0.00  0.00     0.012 A 
BRANCH  15  18
HETATM   18  O   UNK N   1      77.825  36.355   2.550  0.00  0.00    -0.361 OA
HETATM   19  H   UNK N   1      77.607  36.934   1.805  0.00  0.00     0.217 HD
ENDBRANCH  15  18
ENDBRANCH   3  12
BRANCH   8  20
HETATM   20  O   UNK N   1      78.083  39.124  12.810  0.00  0.00    -0.360 OA
HETATM   21  H   UNK N   1      78.995  39.250  13.108  0.00  0.00     0.217 HD
ENDBRANCH   8  20
BRANCH  11  22
HETATM   22  O   UNK N   1      75.946  42.910  10.859  0.00  0.00    -0.361 OA
HETATM   23  H   UNK N   1      76.220  43.650  10.297  0.00  0.00     0.217 HD
ENDBRANCH  11  22
TORSDOF 4
ENDMDL
MODEL 7
REMARK VINA RESULT:      -5.1     34.700     36.258
REMARK  4 active torsions:
REMARK  status: ('A' for Active; 'I' for Inactive)
REMARK    1  A    between atoms: O_3  and  C_12 
REMARK    2  A    between atoms: O_4  and  C_17 
REMARK    3  A    between atoms: O_5  and  C_20 
REMARK    4  A    between atoms: C_6  and  C_8 
ROOT
HETATM    1  O   UNK N   1      81.164  28.356   5.887  0.00  0.00    -0.340 OA
HETATM    2  O   UNK N   1      81.466  25.373   3.228  0.00  0.00    -0.292 OA
HETATM    3  C   UNK N   1      81.662  27.137   6.324  0.00  0.00     0.169 C 
HETATM    4  C   UNK N   1      82.348  26.397   5.164  0.00  0.00     0.121 C 
HETATM    5  C   UNK N   1      80.379  27.385   3.840  0.00  0.00     0.076 A 
HETATM    6  C   UNK N   1      81.376  26.295   4.023  0.00  0.00     0.167 C 
HETATM    7  C   UNK N   1      80.348  28.417   4.802  0.00  0.00     0.089 A 
HETATM    8  C   UNK N   1      79.492  27.424   2.746  0.00  0.00     0.085 A 
HETATM    9  C   UNK N   1      79.466  29.492   4.654  0.00  0.00     0.074 A 
HETATM   10  C   UNK N   1      78.598  28.496   2.621  0.00  0.00     0.074 A 
HETATM   11  C   UNK N   1      78.586  29.531   3.566  0.00  0.00     0.071 A 
ENDROOT
BRANCH   3  12
HETATM   12  C   UNK N   1      82.589  27.327   7.494  0.00  0.00    -0.028 A 
HETATM   13  C   UNK N   1      82.129  27.969   8.656  0.00  0.00     0.012 A 
HETATM   14  C   UNK N   1      82.980  28.137   9.751  0.00  0.00     0.037 A 
HETATM   15  C   UNK N   1      84.294  27.662   9.697  0.00  0.00     0.065 A 
HETATM   16  C   UNK N   1      84.758  27.023   8.539  0.00  0.00     0.037 A 
HETATM   17  C   UNK N   1      83.912  26.861   7.441  0.00  0.00     0.012 A 
BRANCH  15  18
HETATM   18  O   UNK N   1      85.105  27.820  10.762  0.00  0.00    -0.361 OA
HETATM   19  H   UNK N   1      85.625  28.627  10.886  0.00  0.00     0.217 HD
ENDBRANCH  15  18
ENDBRANCH   3  12
BRANCH   8  20
HETATM   20  O   UNK N   1      79.495  26.440   1.824  0.00  0.00    -0.360 OA
HETATM   21  H   UNK N   1      78.901  25.679   1.891  0.00  0.00     0.217 HD
ENDBRANCH   8  20
BRANCH  11  22
HETATM   22  O   UNK N   1      77.726  30.560   3.439  0.00  0.00    -0.361 OA
HETATM   23  H   UNK N   1      77.992  31.387   3.009  0.00  0.00     0.217 HD
ENDBRANCH  11  22
TORSDOF 4
ENDMDL
MODEL 8
REMARK VINA RESULT:      -5.0     36.850     38.987
REMARK  4 active torsions:
REMARK  status: ('A' for Active; 'I' for Inactive)
REMARK    1  A    between atoms: O_3  and  C_12 
REMARK    2  A    between atoms: O_4  and  C_17 
REMARK    3  A    between atoms: O_5  and  C_20 
REMARK    4  A    between atoms: C_6  and  C_8 
ROOT
HETATM    1  O   UNK N   1      77.808  27.936  -8.377  0.00  0.00    -0.340 OA
HETATM    2  O   UNK N   1      78.823  25.467  -5.388  0.00  0.00    -0.292 OA
HETATM    3  C   UNK N   1      78.782  26.978  -8.620  0.00  0.00     0.169 C 
HETATM    4  C   UNK N   1      78.561  25.754  -7.717  0.00  0.00     0.121 C 
HETATM    5  C   UNK N   1      77.938  27.573  -6.010  0.00  0.00     0.076 A 
HETATM    6  C   UNK N   1      78.496  26.222  -6.290  0.00  0.00     0.167 C 
HETATM    7  C   UNK N   1      77.578  28.377  -7.112  0.00  0.00     0.089 A 
HETATM    8  C   UNK N   1      77.749  28.059  -4.701  0.00  0.00     0.085 A 
HETATM    9  C   UNK N   1      77.003  29.636  -6.908  0.00  0.00     0.074 A 
HETATM   10  C   UNK N   1      77.192  29.330  -4.510  0.00  0.00     0.074 A 
HETATM   11  C   UNK N   1      76.814  30.116  -5.607  0.00  0.00     0.071 A 
ENDROOT
BRANCH   3  12
HETATM   12  C   UNK N   1      78.809  26.602 -10.077  0.00  0.00    -0.028 A 
HETATM   13  C   UNK N   1      78.428  25.309 -10.474  0.00  0.00     0.012 A 
HETATM   14  C   UNK N   1      78.437  24.958 -11.826  0.00  0.00     0.037 A 
HETATM   15  C   UNK N   1      78.820  25.894 -12.792  0.00  0.00     0.065 A 
HETATM   16  C   UNK N   1      79.204  27.184 -12.399  0.00  0.00     0.037 A 
HETATM   17  C   UNK N   1      79.203  27.535 -11.049  0.00  0.00     0.012 A 
BRANCH  15  18
HETATM   18  O   UNK N   1      78.818  25.549 -14.095  0.00  0.00    -0.361 OA
HETATM   19  H   UNK N   1      79.004  26.196 -14.790  0.00  0.00     0.217 HD
ENDBRANCH  15  18
ENDBRANCH   3  12
BRANCH   8  20
HETATM   20  O   UNK N   1      78.100  27.311  -3.634  0.00  0.00    -0.360 OA
HETATM   21  H   UNK N   1      78.931  26.816  -3.613  0.00  0.00     0.217 HD
ENDBRANCH   8  20
BRANCH  11  22
HETATM   22  O   UNK N   1      76.277  31.337  -5.417  0.00  0.00    -0.361 OA
HETATM   23  H   UNK N   1      76.225  31.732  -4.534  0.00  0.00     0.217 HD
ENDBRANCH  11  22
TORSDOF 4
ENDMDL
MODEL 9
REMARK VINA RESULT:      -5.0     35.060     37.078
REMARK  4 active torsions:
REMARK  status: ('A' for Active; 'I' for Inactive)
REMARK    1  A    between atoms: O_3  and  C_12 
REMARK    2  A    between atoms: O_4  and  C_17 
REMARK    3  A    between atoms: O_5  and  C_20 
REMARK    4  A    between atoms: C_6  and  C_8 
ROOT
HETATM    1  O   UNK N   1      82.047  27.752   6.774  0.00  0.00    -0.340 OA
HETATM    2  O   UNK N   1      85.314  25.874   5.411  0.00  0.00    -0.292 OA
HETATM    3  C   UNK N   1      82.314  27.806   5.413  0.00  0.00     0.169 C 
HETATM    4  C   UNK N   1      83.096  26.557   4.976  0.00  0.00     0.121 C 
HETATM    5  C   UNK N   1      84.245  26.918   7.247  0.00  0.00     0.076 A 
HETATM    6  C   UNK N   1      84.318  26.434   5.842  0.00  0.00     0.167 C 
HETATM    7  C   UNK N   1      83.052  27.547   7.665  0.00  0.00     0.089 A 
HETATM    8  C   UNK N   1      85.306  26.759   8.160  0.00  0.00     0.085 A 
HETATM    9  C   UNK N   1      82.909  27.978   8.988  0.00  0.00     0.074 A 
HETATM   10  C   UNK N   1      85.158  27.215   9.477  0.00  0.00     0.074 A 
HETATM   11  C   UNK N   1      83.963  27.817   9.894  0.00  0.00     0.071 A 
ENDROOT
BRANCH   3  12
HETATM   12  C   UNK N   1      81.042  27.974   4.626  0.00  0.00    -0.028 A 
HETATM   13  C   UNK N   1      80.039  28.841   5.092  0.00  0.00     0.012 A 
HETATM   14  C   UNK N   1      78.862  29.013   4.359  0.00  0.00     0.037 A 
HETATM   15  C   UNK N   1      78.679  28.327   3.155  0.00  0.00     0.065 A 
HETATM   16  C   UNK N   1      79.677  27.460   2.688  0.00  0.00     0.037 A 
HETATM   17  C   UNK N   1      80.850  27.280   3.422  0.00  0.00     0.012 A 
BRANCH  15  18
HETATM   18  O   UNK N   1      77.545  28.506   2.450  0.00  0.00    -0.361 OA
HETATM   19  H   UNK N   1      77.497  29.143   1.722  0.00  0.00     0.217 HD
ENDBRANCH  15  18
ENDBRANCH   3  12
BRANCH   8  20
HETATM   20  O   UNK N   1      86.460  26.175   7.777  0.00  0.00    -0.360 OA
HETATM   21  H   UNK N   1      86.467  25.366   7.247  0.00  0.00     0.217 HD
ENDBRANCH   8  20
BRANCH  11  22
HETATM   22  O   UNK N   1      83.825  28.250  11.163  0.00  0.00    -0.361 OA
HETATM   23  H   UNK N   1      82.957  28.489  11.520  0.00  0.00     0.217 HD
ENDBRANCH  11  22
TORSDOF 4
ENDMDL
