MODEL 1
REMARK VINA RESULT:      -4.1      0.000      0.000
REMARK  7 active torsions:
REMARK  status: ('A' for Active; 'I' for Inactive)
REMARK    1  A    between atoms: O_2  and  C_10 
REMARK       I    between atoms: N_4  and  C_9 
REMARK    2  A    between atoms: N_4  and  C_11 
REMARK    3  A    between atoms: N_5  and  C_7 
REMARK    4  A    between atoms: C_6  and  C_7 
REMARK    5  A    between atoms: C_6  and  C_8 
REMARK    6  A    between atoms: C_7  and  C_10 
REMARK    7  A    between atoms: C_8  and  C_9 
ROOT
HETATM    1  C   UNK N   1      79.773  28.797   3.584  0.00  0.00     0.056 C 
ENDROOT
BRANCH   1   2
HETATM    2  C   UNK N   1      78.800  27.947   2.741  0.00  0.00     0.315 C 
BRANCH   2   3
HETATM    3  N   UNK N   1      77.598  27.609   3.505  0.00  0.00     0.093 N 
HETATM    4  H   UNK N   1      76.749  27.809   2.928  0.00  0.00     0.314 HD
HETATM    5  H   UNK N   1      77.546  28.190   4.374  0.00  0.00     0.314 HD
ENDBRANCH   2   3
BRANCH   2   6
HETATM    6  C   UNK N   1      79.476  26.691   2.251  0.00  0.00     0.173 C 
HETATM    7  O   UNK N   1      79.086  26.138   1.233  0.00  0.00    -0.648 OA
BRANCH   6   8
HETATM    8  O   UNK N   1      80.474  26.144   2.976  0.00  0.00    -0.775 OA
HETATM    9  H   UNK N   1      81.061  25.475   2.595  0.00  0.00     0.167 HD
ENDBRANCH   6   8
ENDBRANCH   2   6
ENDBRANCH   1   2
BRANCH   1  10
HETATM   10  C   UNK N   1      79.315  28.868   5.054  0.00  0.00     0.105 C 
BRANCH  10  11
HETATM   11  C   UNK N   1      80.117  27.991   5.982  0.00  0.00     0.217 C 
HETATM   12  O   UNK N   1      81.058  28.464   6.597  0.00  0.00    -0.274 OA
HETATM   13  N   UNK N   1      79.762  26.676   6.111  0.00  0.00    -0.361 N 
HETATM   14  H   UNK N   1      78.954  26.348   5.562  0.00  0.00     0.162 HD
BRANCH  13  15
HETATM   15  C   UNK N   1      80.408  25.668   6.952  0.00  0.00     0.118 C 
HETATM   16  C   UNK N   1      81.410  24.733   6.273  0.00  0.00     0.026 C 
ENDBRANCH  13  15
ENDBRANCH  10  11
ENDBRANCH   1  10
TORSDOF 7
ENDMDL
MODEL 2
REMARK VINA RESULT:      -3.9      2.705      4.355
REMARK  7 active torsions:
REMARK  status: ('A' for Active; 'I' for Inactive)
REMARK    1  A    between atoms: O_2  and  C_10 
REMARK       I    between atoms: N_4  and  C_9 
REMARK    2  A    between atoms: N_4  and  C_11 
REMARK    3  A    between atoms: N_5  and  C_7 
REMARK    4  A    between atoms: C_6  and  C_7 
REMARK    5  A    between atoms: C_6  and  C_8 
REMARK    6  A    between atoms: C_7  and  C_10 
REMARK    7  A    between atoms: C_8  and  C_9 
ROOT
HETATM    1  C   UNK N   1      81.640  26.508   6.595  0.00  0.00     0.056 C 
ENDROOT
BRANCH   1   2
HETATM    2  C   UNK N   1      80.273  27.196   6.788  0.00  0.00     0.315 C 
BRANCH   2   3
HETATM    3  N   UNK N   1      79.186  26.216   6.795  0.00  0.00     0.093 N 
HETATM    4  H   UNK N   1      79.362  25.502   7.539  0.00  0.00     0.314 HD
HETATM    5  H   UNK N   1      79.139  25.721   5.873  0.00  0.00     0.314 HD
ENDBRANCH   2   3
BRANCH   2   6
HETATM    6  C   UNK N   1      80.037  28.227   5.713  0.00  0.00     0.173 C 
HETATM    7  O   UNK N   1      80.974  28.658   5.056  0.00  0.00    -0.648 OA
BRANCH   6   8
HETATM    8  O   UNK N   1      78.795  28.718   5.519  0.00  0.00    -0.775 OA
HETATM    9  H   UNK N   1      78.621  29.669   5.561  0.00  0.00     0.167 HD
ENDBRANCH   6   8
ENDBRANCH   2   6
ENDBRANCH   1   2
BRANCH   1  10
HETATM   10  C   UNK N   1      81.533  24.988   6.832  0.00  0.00     0.105 C 
BRANCH  10  11
HETATM   11  C   UNK N   1      82.067  24.158   5.692  0.00  0.00     0.217 C 
HETATM   12  O   UNK N   1      83.272  24.034   5.548  0.00  0.00    -0.274 OA
HETATM   13  N   UNK N   1      81.176  23.560   4.843  0.00  0.00    -0.361 N 
HETATM   14  H   UNK N   1      80.173  23.707   5.030  0.00  0.00     0.162 HD
BRANCH  13  15
HETATM   15  C   UNK N   1      81.489  22.721   3.685  0.00  0.00     0.118 C 
HETATM   16  C   UNK N   1      80.566  21.531   3.418  0.00  0.00     0.026 C 
ENDBRANCH  13  15
ENDBRANCH  10  11
ENDBRANCH   1  10
TORSDOF 7
ENDMDL
MODEL 3
REMARK VINA RESULT:      -3.8      2.495      5.661
REMARK  7 active torsions:
REMARK  status: ('A' for Active; 'I' for Inactive)
REMARK    1  A    between atoms: O_2  and  C_10 
REMARK       I    between atoms: N_4  and  C_9 
REMARK    2  A    between atoms: N_4  and  C_11 
REMARK    3  A    between atoms: N_5  and  C_7 
REMARK    4  A    between atoms: C_6  and  C_7 
REMARK    5  A    between atoms: C_6  and  C_8 
REMARK    6  A    between atoms: C_7  and  C_10 
REMARK    7  A    between atoms: C_8  and  C_9 
ROOT
HETATM    1  C   UNK N   1      82.128  27.245   6.838  0.00  0.00     0.056 C 
ENDROOT
BRANCH   1   2
HETATM    2  C   UNK N   1      82.157  26.165   7.939  0.00  0.00     0.315 C 
BRANCH   2   3
HETATM    3  N   UNK N   1      80.964  25.318   7.877  0.00  0.00     0.093 N 
HETATM    4  H   UNK N   1      80.260  25.752   7.236  0.00  0.00     0.314 HD
HETATM    5  H   UNK N   1      80.531  25.233   8.827  0.00  0.00     0.314 HD
ENDBRANCH   2   3
BRANCH   2   6
HETATM    6  C   UNK N   1      82.275  26.797   9.303  0.00  0.00     0.173 C 
HETATM    7  O   UNK N   1      83.069  27.707   9.494  0.00  0.00    -0.648 OA
BRANCH   6   8
HETATM    8  O   UNK N   1      81.545  26.312  10.329  0.00  0.00    -0.775 OA
HETATM    9  H   UNK N   1      80.746  25.789  10.171  0.00  0.00     0.167 HD
ENDBRANCH   6   8
ENDBRANCH   2   6
ENDBRANCH   1   2
BRANCH   1  10
HETATM   10  C   UNK N   1      80.751  27.934   6.773  0.00  0.00     0.105 C 
BRANCH  10  11
HETATM   11  C   UNK N   1      80.151  27.963   5.390  0.00  0.00     0.217 C 
HETATM   12  O   UNK N   1      80.665  27.313   4.495  0.00  0.00    -0.274 OA
HETATM   13  N   UNK N   1      79.035  28.725   5.175  0.00  0.00    -0.361 N 
HETATM   14  H   UNK N   1      78.655  29.245   5.980  0.00  0.00     0.162 HD
BRANCH  13  15
HETATM   15  C   UNK N   1      78.308  28.887   3.916  0.00  0.00     0.118 C 
HETATM   16  C   UNK N   1      78.545  30.183   3.137  0.00  0.00     0.026 C 
ENDBRANCH  13  15
ENDBRANCH  10  11
ENDBRANCH   1  10
TORSDOF 7
ENDMDL
MODEL 4
REMARK VINA RESULT:      -3.8     11.649     12.867
REMARK  7 active torsions:
REMARK  status: ('A' for Active; 'I' for Inactive)
REMARK    1  A    between atoms: O_2  and  C_10 
REMARK       I    between atoms: N_4  and  C_9 
REMARK    2  A    between atoms: N_4  and  C_11 
REMARK    3  A    between atoms: N_5  and  C_7 
REMARK    4  A    between atoms: C_6  and  C_7 
REMARK    5  A    between atoms: C_6  and  C_8 
REMARK    6  A    between atoms: C_7  and  C_10 
REMARK    7  A    between atoms: C_8  and  C_9 
ROOT
HETATM    1  C   UNK N   1      76.298  36.292  -3.902  0.00  0.00     0.056 C 
ENDROOT
BRANCH   1   2
HETATM    2  C   UNK N   1      74.999  36.195  -3.076  0.00  0.00     0.315 C 
BRANCH   2   3
HETATM    3  N   UNK N   1      73.910  35.626  -3.872  0.00  0.00     0.093 N 
HETATM    4  H   UNK N   1      73.947  34.581  -3.819  0.00  0.00     0.314 HD
HETATM    5  H   UNK N   1      74.012  35.904  -4.876  0.00  0.00     0.314 HD
ENDBRANCH   2   3
BRANCH   2   6
HETATM    6  C   UNK N   1      74.602  37.549  -2.546  0.00  0.00     0.173 C 
HETATM    7  O   UNK N   1      75.419  38.247  -1.962  0.00  0.00    -0.648 OA
BRANCH   6   8
HETATM    8  O   UNK N   1      73.323  37.964  -2.664  0.00  0.00    -0.775 OA
HETATM    9  H   UNK N   1      72.591  37.331  -2.675  0.00  0.00     0.167 HD
ENDBRANCH   6   8
ENDBRANCH   2   6
ENDBRANCH   1   2
BRANCH   1  10
HETATM   10  C   UNK N   1      77.287  35.175  -3.513  0.00  0.00     0.105 C 
BRANCH  10  11
HETATM   11  C   UNK N   1      77.547  34.182  -4.618  0.00  0.00     0.217 C 
HETATM   12  O   UNK N   1      78.644  34.144  -5.150  0.00  0.00    -0.274 OA
HETATM   13  N   UNK N   1      76.534  33.343  -4.998  0.00  0.00    -0.361 N 
HETATM   14  H   UNK N   1      75.636  33.432  -4.500  0.00  0.00     0.162 HD
BRANCH  13  15
HETATM   15  C   UNK N   1      76.583  32.319  -6.041  0.00  0.00     0.118 C 
HETATM   16  C   UNK N   1      76.808  30.875  -5.589  0.00  0.00     0.026 C 
ENDBRANCH  13  15
ENDBRANCH  10  11
ENDBRANCH   1  10
TORSDOF 7
ENDMDL
MODEL 5
REMARK VINA RESULT:      -3.8      3.249      5.125
REMARK  7 active torsions:
REMARK  status: ('A' for Active; 'I' for Inactive)
REMARK    1  A    between atoms: O_2  and  C_10 
REMARK       I    between atoms: N_4  and  C_9 
REMARK    2  A    between atoms: N_4  and  C_11 
REMARK    3  A    between atoms: N_5  and  C_7 
REMARK    4  A    between atoms: C_6  and  C_7 
REMARK    5  A    between atoms: C_6  and  C_8 
REMARK    6  A    between atoms: C_7  and  C_10 
REMARK    7  A    between atoms: C_8  and  C_9 
ROOT
HETATM    1  C   UNK N   1      82.493  25.648   6.392  0.00  0.00     0.056 C 
ENDROOT
BRANCH   1   2
HETATM    2  C   UNK N   1      81.362  25.983   7.386  0.00  0.00     0.315 C 
BRANCH   2   3
HETATM    3  N   UNK N   1      80.616  24.781   7.761  0.00  0.00     0.093 N 
HETATM    4  H   UNK N   1      80.080  24.962   8.641  0.00  0.00     0.314 HD
HETATM    5  H   UNK N   1      81.276  23.987   7.939  0.00  0.00     0.314 HD
ENDBRANCH   2   3
BRANCH   2   6
HETATM    6  C   UNK N   1      80.428  27.014   6.804  0.00  0.00     0.173 C 
HETATM    7  O   UNK N   1      80.698  28.204   6.880  0.00  0.00    -0.648 OA
BRANCH   6   8
HETATM    8  O   UNK N   1      79.261  26.621   6.252  0.00  0.00    -0.775 OA
HETATM    9  H   UNK N   1      79.241  26.151   5.406  0.00  0.00     0.167 HD
ENDBRANCH   6   8
ENDBRANCH   2   6
ENDBRANCH   1   2
BRANCH   1  10
HETATM   10  C   UNK N   1      82.411  24.178   5.934  0.00  0.00     0.105 C 
BRANCH  10  11
HETATM   11  C   UNK N   1      81.866  24.006   4.539  0.00  0.00     0.217 C 
HETATM   12  O   UNK N   1      81.910  24.939   3.755  0.00  0.00    -0.274 OA
HETATM   13  N   UNK N   1      81.332  22.796   4.188  0.00  0.00    -0.361 N 
HETATM   14  H   UNK N   1      81.333  22.054   4.903  0.00  0.00     0.162 HD
BRANCH  13  15
HETATM   15  C   UNK N   1      80.756  22.430   2.894  0.00  0.00     0.118 C 
HETATM   16  C   UNK N   1      79.947  21.132   2.835  0.00  0.00     0.026 C 
ENDBRANCH  13  15
ENDBRANCH  10  11
ENDBRANCH   1  10
TORSDOF 7
ENDMDL
MODEL 6
REMARK VINA RESULT:      -3.7     20.151     21.564
REMARK  7 active torsions:
REMARK  status: ('A' for Active; 'I' for Inactive)
REMARK    1  A    between atoms: O_2  and  C_10 
REMARK       I    between atoms: N_4  and  C_9 
REMARK    2  A    between atoms: N_4  and  C_11 
REMARK    3  A    between atoms: N_5  and  C_7 
REMARK    4  A    between atoms: C_6  and  C_7 
REMARK    5  A    between atoms: C_6  and  C_8 
REMARK    6  A    between atoms: C_7  and  C_10 
REMARK    7  A    between atoms: C_8  and  C_9 
ROOT
HETATM    1  C   UNK N   1      73.762  36.818 -12.090  0.00  0.00     0.056 C 
ENDROOT
BRANCH   1   2
HETATM    2  C   UNK N   1      73.397  36.903 -13.587  0.00  0.00     0.315 C 
BRANCH   2   3
HETATM    3  N   UNK N   1      74.211  35.981 -14.381  0.00  0.00     0.093 N 
HETATM    4  H   UNK N   1      75.132  36.428 -14.600  0.00  0.00     0.314 HD
HETATM    5  H   UNK N   1      73.732  35.763 -15.286  0.00  0.00     0.314 HD
ENDBRANCH   2   3
BRANCH   2   6
HETATM    6  C   UNK N   1      73.560  38.312 -14.097  0.00  0.00     0.173 C 
HETATM    7  O   UNK N   1      74.268  39.108 -13.495  0.00  0.00    -0.648 OA
BRANCH   6   8
HETATM    8  O   UNK N   1      72.874  38.711 -15.188  0.00  0.00    -0.775 OA
HETATM    9  H   UNK N   1      72.766  38.128 -15.952  0.00  0.00     0.167 HD
ENDBRANCH   6   8
ENDBRANCH   2   6
ENDBRANCH   1   2
BRANCH   1  10
HETATM   10  C   UNK N   1      72.548  37.163 -11.204  0.00  0.00     0.105 C 
BRANCH  10  11
HETATM   11  C   UNK N   1      72.657  38.502 -10.520  0.00  0.00     0.217 C 
HETATM   12  O   UNK N   1      73.235  38.589  -9.450  0.00  0.00    -0.274 OA
HETATM   13  N   UNK N   1      72.100  39.595 -11.127  0.00  0.00    -0.361 N 
HETATM   14  H   UNK N   1      71.631  39.446 -12.032  0.00  0.00     0.162 HD
BRANCH  13  15
HETATM   15  C   UNK N   1      72.096  40.972 -10.630  0.00  0.00     0.118 C 
HETATM   16  C   UNK N   1      70.777  41.741 -10.723  0.00  0.00     0.026 C 
ENDBRANCH  13  15
ENDBRANCH  10  11
ENDBRANCH   1  10
TORSDOF 7
ENDMDL
MODEL 7
REMARK VINA RESULT:      -3.7     10.190     11.721
REMARK  7 active torsions:
REMARK  status: ('A' for Active; 'I' for Inactive)
REMARK    1  A    between atoms: O_2  and  C_10 
REMARK       I    between atoms: N_4  and  C_9 
REMARK    2  A    between atoms: N_4  and  C_11 
REMARK    3  A    between atoms: N_5  and  C_7 
REMARK    4  A    between atoms: C_6  and  C_7 
REMARK    5  A    between atoms: C_6  and  C_8 
REMARK    6  A    between atoms: C_7  and  C_10 
REMARK    7  A    between atoms: C_8  and  C_9 
ROOT
HETATM    1  C   UNK N   1      78.140  30.750  -5.155  0.00  0.00     0.056 C 
ENDROOT
BRANCH   1   2
HETATM    2  C   UNK N   1      77.384  31.847  -5.934  0.00  0.00     0.315 C 
BRANCH   2   3
HETATM    3  N   UNK N   1      76.023  32.014  -5.422  0.00  0.00     0.093 N 
HETATM    4  H   UNK N   1      76.042  32.027  -4.376  0.00  0.00     0.314 HD
HETATM    5  H   UNK N   1      75.420  31.213  -5.727  0.00  0.00     0.314 HD
ENDBRANCH   2   3
BRANCH   2   6
HETATM    6  C   UNK N   1      77.349  31.527  -7.407  0.00  0.00     0.173 C 
HETATM    7  O   UNK N   1      77.967  32.219  -8.204  0.00  0.00    -0.648 OA
BRANCH   6   8
HETATM    8  O   UNK N   1      76.583  30.508  -7.851  0.00  0.00    -0.775 OA
HETATM    9  H   UNK N   1      75.973  30.627  -8.593  0.00  0.00     0.167 HD
ENDBRANCH   6   8
ENDBRANCH   2   6
ENDBRANCH   1   2
BRANCH   1  10
HETATM   10  C   UNK N   1      77.162  29.706  -4.579  0.00  0.00     0.105 C 
BRANCH  10  11
HETATM   11  C   UNK N   1      77.346  28.323  -5.150  0.00  0.00     0.217 C 
HETATM   12  O   UNK N   1      76.953  27.354  -4.523  0.00  0.00    -0.274 OA
HETATM   13  N   UNK N   1      77.955  28.192  -6.368  0.00  0.00    -0.361 N 
HETATM   14  H   UNK N   1      78.258  29.057  -6.841  0.00  0.00     0.162 HD
BRANCH  13  15
HETATM   15  C   UNK N   1      78.227  26.948  -7.088  0.00  0.00     0.118 C 
HETATM   16  C   UNK N   1      78.448  27.052  -8.598  0.00  0.00     0.026 C 
ENDBRANCH  13  15
ENDBRANCH  10  11
ENDBRANCH   1  10
TORSDOF 7
ENDMDL
MODEL 8
REMARK VINA RESULT:      -3.6      2.333      2.602
REMARK  7 active torsions:
REMARK  status: ('A' for Active; 'I' for Inactive)
REMARK    1  A    between atoms: O_2  and  C_10 
REMARK       I    between atoms: N_4  and  C_9 
REMARK    2  A    between atoms: N_4  and  C_11 
REMARK    3  A    between atoms: N_5  and  C_7 
REMARK    4  A    between atoms: C_6  and  C_7 
REMARK    5  A    between atoms: C_6  and  C_8 
REMARK    6  A    between atoms: C_7  and  C_10 
REMARK    7  A    between atoms: C_8  and  C_9 
ROOT
HETATM    1  C   UNK N   1      80.567  28.737   4.011  0.00  0.00     0.056 C 
ENDROOT
BRANCH   1   2
HETATM    2  C   UNK N   1      80.035  29.858   3.094  0.00  0.00     0.315 C 
BRANCH   2   3
HETATM    3  N   UNK N   1      80.494  31.172   3.547  0.00  0.00     0.093 N 
HETATM    4  H   UNK N   1      79.786  31.585   4.197  0.00  0.00     0.314 HD
HETATM    5  H   UNK N   1      80.603  31.819   2.731  0.00  0.00     0.314 HD
ENDBRANCH   2   3
BRANCH   2   6
HETATM    6  C   UNK N   1      78.529  29.827   3.031  0.00  0.00     0.173 C 
HETATM    7  O   UNK N   1      77.952  28.869   2.536  0.00  0.00    -0.648 OA
BRANCH   6   8
HETATM    8  O   UNK N   1      77.820  30.888   3.469  0.00  0.00    -0.775 OA
HETATM    9  H   UNK N   1      78.054  31.341   4.292  0.00  0.00     0.167 HD
ENDBRANCH   6   8
ENDBRANCH   2   6
ENDBRANCH   1   2
BRANCH   1  10
HETATM   10  C   UNK N   1      80.020  28.888   5.444  0.00  0.00     0.105 C 
BRANCH  10  11
HETATM   11  C   UNK N   1      80.512  27.828   6.396  0.00  0.00     0.217 C 
HETATM   12  O   UNK N   1      81.142  28.152   7.389  0.00  0.00    -0.274 OA
HETATM   13  N   UNK N   1      80.236  26.516   6.117  0.00  0.00    -0.361 N 
HETATM   14  H   UNK N   1      79.696  26.319   5.261  0.00  0.00     0.162 HD
BRANCH  13  15
HETATM   15  C   UNK N   1      80.622  25.347   6.907  0.00  0.00     0.118 C 
HETATM   16  C   UNK N   1      81.925  24.645   6.518  0.00  0.00     0.026 C 
ENDBRANCH  13  15
ENDBRANCH  10  11
ENDBRANCH   1  10
TORSDOF 7
ENDMDL
MODEL 9
REMARK VINA RESULT:      -3.5      3.713      5.202
REMARK  7 active torsions:
REMARK  status: ('A' for Active; 'I' for Inactive)
REMARK    1  A    between atoms: O_2  and  C_10 
REMARK       I    between atoms: N_4  and  C_9 
REMARK    2  A    between atoms: N_4  and  C_11 
REMARK    3  A    between atoms: N_5  and  C_7 
REMARK    4  A    between atoms: C_6  and  C_7 
REMARK    5  A    between atoms: C_6  and  C_8 
REMARK    6  A    between atoms: C_7  and  C_10 
REMARK    7  A    between atoms: C_8  and  C_9 
ROOT
HETATM    1  C   UNK N   1      82.170  26.422   7.514  0.00  0.00     0.056 C 
ENDROOT
BRANCH   1   2
HETATM    2  C   UNK N   1      80.736  26.342   6.952  0.00  0.00     0.315 C 
BRANCH   2   3
HETATM    3  N   UNK N   1      80.610  25.254   5.980  0.00  0.00     0.093 N 
HETATM    4  H   UNK N   1      79.728  24.722   6.162  0.00  0.00     0.314 HD
HETATM    5  H   UNK N   1      81.415  24.591   6.073  0.00  0.00     0.314 HD
ENDBRANCH   2   3
BRANCH   2   6
HETATM    6  C   UNK N   1      80.336  27.651   6.320  0.00  0.00     0.173 C 
HETATM    7  O   UNK N   1      79.754  27.665   5.245  0.00  0.00    -0.648 OA
BRANCH   6   8
HETATM    8  O   UNK N   1      80.678  28.812   6.917  0.00  0.00    -0.775 OA
HETATM    9  H   UNK N   1      81.564  29.187   6.813  0.00  0.00     0.167 HD
ENDBRANCH   6   8
ENDBRANCH   2   6
ENDBRANCH   1   2
BRANCH   1  10
HETATM   10  C   UNK N   1      82.173  26.273   9.048  0.00  0.00     0.105 C 
BRANCH  10  11
HETATM   11  C   UNK N   1      82.241  27.587   9.785  0.00  0.00     0.217 C 
HETATM   12  O   UNK N   1      82.633  28.585   9.205  0.00  0.00    -0.274 OA
HETATM   13  N   UNK N   1      81.857  27.623  11.098  0.00  0.00    -0.361 N 
HETATM   14  H   UNK N   1      81.534  26.740  11.521  0.00  0.00     0.162 HD
BRANCH  13  15
HETATM   15  C   UNK N   1      81.850  28.789  11.982  0.00  0.00     0.118 C 
HETATM   16  C   UNK N   1      82.232  28.555  13.445  0.00  0.00     0.026 C 
ENDBRANCH  13  15
ENDBRANCH  10  11
ENDBRANCH   1  10
TORSDOF 7
ENDMDL
