MODEL 1
REMARK VINA RESULT:      -4.3      0.000      0.000
REMARK  3 active torsions:
REMARK  status: ('A' for Active; 'I' for Inactive)
REMARK    1  A    between atoms: O_1  and  C_11 
REMARK    2  A    between atoms: C_3  and  C_6 
REMARK    3  A    between atoms: C_10  and  C_11 
ROOT
HETATM    1  C   UNK N   1      50.082  14.684  13.064  0.00  0.00    -0.036 A 
HETATM    2  C   UNK N   1      51.030  14.077  12.210  0.00  0.00     0.011 A 
HETATM    3  C   UNK N   1      49.019  13.905  13.556  0.00  0.00     0.011 A 
HETATM    4  C   UNK N   1      50.915  12.727  11.871  0.00  0.00     0.001 A 
HETATM    5  C   UNK N   1      48.916  12.551  13.219  0.00  0.00     0.001 A 
HETATM    6  C   UNK N   1      49.864  11.964  12.379  0.00  0.00     0.000 A 
ENDROOT
BRANCH   1   7
HETATM    7  C   UNK N   1      50.167  16.117  13.467  0.00  0.00     0.018 C 
HETATM    8  C   UNK N   1      49.084  16.900  13.650  0.00  0.00     0.082 C 
BRANCH   8   9
HETATM    9  C   UNK N   1      49.194  18.322  14.032  0.00  0.00     0.165 C 
HETATM   10  O   UNK N   1      48.498  19.172  13.500  0.00  0.00    -0.647 OA
BRANCH   9  11
HETATM   11  O   UNK N   1      50.080  18.676  14.989  0.00  0.00    -0.773 OA
HETATM   12  H   UNK N   1      49.969  18.392  15.906  0.00  0.00     0.167 HD
ENDBRANCH   9  11
ENDBRANCH   8   9
ENDBRANCH   1   7
TORSDOF 3
ENDMDL
MODEL 2
REMARK VINA RESULT:      -4.3     34.933     36.132
REMARK  3 active torsions:
REMARK  status: ('A' for Active; 'I' for Inactive)
REMARK    1  A    between atoms: O_1  and  C_11 
REMARK    2  A    between atoms: C_3  and  C_6 
REMARK    3  A    between atoms: C_10  and  C_11 
ROOT
HETATM    1  C   UNK N   1      78.410  36.664   7.190  0.00  0.00    -0.036 A 
HETATM    2  C   UNK N   1      78.338  35.864   6.029  0.00  0.00     0.011 A 
HETATM    3  C   UNK N   1      78.286  38.059   7.060  0.00  0.00     0.011 A 
HETATM    4  C   UNK N   1      78.139  36.450   4.777  0.00  0.00     0.001 A 
HETATM    5  C   UNK N   1      78.076  38.637   5.804  0.00  0.00     0.001 A 
HETATM    6  C   UNK N   1      78.001  37.834   4.665  0.00  0.00     0.000 A 
ENDROOT
BRANCH   1   7
HETATM    7  C   UNK N   1      78.609  36.087   8.551  0.00  0.00     0.018 C 
HETATM    8  C   UNK N   1      77.832  36.400   9.608  0.00  0.00     0.082 C 
BRANCH   8   9
HETATM    9  C   UNK N   1      78.059  35.829  10.951  0.00  0.00     0.165 C 
HETATM   10  O   UNK N   1      79.179  35.781  11.433  0.00  0.00    -0.647 OA
BRANCH   9  11
HETATM   11  O   UNK N   1      77.002  35.357  11.648  0.00  0.00    -0.773 OA
HETATM   12  H   UNK N   1      77.049  34.519  12.126  0.00  0.00     0.167 HD
ENDBRANCH   9  11
ENDBRANCH   8   9
ENDBRANCH   1   7
TORSDOF 3
ENDMDL
MODEL 3
REMARK VINA RESULT:      -4.2     33.092     33.789
REMARK  3 active torsions:
REMARK  status: ('A' for Active; 'I' for Inactive)
REMARK    1  A    between atoms: O_1  and  C_11 
REMARK    2  A    between atoms: C_3  and  C_6 
REMARK    3  A    between atoms: C_10  and  C_11 
ROOT
HETATM    1  C   UNK N   1      80.464  27.717   6.301  0.00  0.00    -0.036 A 
HETATM    2  C   UNK N   1      81.488  28.211   7.139  0.00  0.00     0.011 A 
HETATM    3  C   UNK N   1      80.156  26.345   6.347  0.00  0.00     0.011 A 
HETATM    4  C   UNK N   1      82.174  27.353   8.001  0.00  0.00     0.001 A 
HETATM    5  C   UNK N   1      80.840  25.494   7.221  0.00  0.00     0.001 A 
HETATM    6  C   UNK N   1      81.846  25.997   8.047  0.00  0.00     0.000 A 
ENDROOT
BRANCH   1   7
HETATM    7  C   UNK N   1      79.694  28.593   5.373  0.00  0.00     0.018 C 
HETATM    8  C   UNK N   1      79.113  28.144   4.242  0.00  0.00     0.082 C 
BRANCH   8   9
HETATM    9  C   UNK N   1      78.370  29.035   3.328  0.00  0.00     0.165 C 
HETATM   10  O   UNK N   1      78.492  30.247   3.393  0.00  0.00    -0.647 OA
BRANCH   9  11
HETATM   11  O   UNK N   1      77.546  28.487   2.408  0.00  0.00    -0.773 OA
HETATM   12  H   UNK N   1      76.592  28.434   2.556  0.00  0.00     0.167 HD
ENDBRANCH   9  11
ENDBRANCH   8   9
ENDBRANCH   1   7
TORSDOF 3
ENDMDL
MODEL 4
REMARK VINA RESULT:      -4.2     33.173     34.165
REMARK  3 active torsions:
REMARK  status: ('A' for Active; 'I' for Inactive)
REMARK    1  A    between atoms: O_1  and  C_11 
REMARK    2  A    between atoms: C_3  and  C_6 
REMARK    3  A    between atoms: C_10  and  C_11 
ROOT
HETATM    1  C   UNK N   1      80.029  28.255   4.373  0.00  0.00    -0.036 A 
HETATM    2  C   UNK N   1      80.527  29.575   4.299  0.00  0.00     0.011 A 
HETATM    3  C   UNK N   1      78.822  27.950   3.718  0.00  0.00     0.011 A 
HETATM    4  C   UNK N   1      79.835  30.553   3.581  0.00  0.00     0.001 A 
HETATM    5  C   UNK N   1      78.141  28.932   2.992  0.00  0.00     0.001 A 
HETATM    6  C   UNK N   1      78.648  30.231   2.922  0.00  0.00     0.000 A 
ENDROOT
BRANCH   1   7
HETATM    7  C   UNK N   1      80.735  27.172   5.115  0.00  0.00     0.018 C 
HETATM    8  C   UNK N   1      80.423  26.816   6.378  0.00  0.00     0.082 C 
BRANCH   8   9
HETATM    9  C   UNK N   1      81.149  25.751   7.100  0.00  0.00     0.165 C 
HETATM   10  O   UNK N   1      82.368  25.743   7.150  0.00  0.00    -0.647 OA
BRANCH   9  11
HETATM   11  O   UNK N   1      80.440  24.778   7.714  0.00  0.00    -0.773 OA
HETATM   12  H   UNK N   1      79.501  24.648   7.529  0.00  0.00     0.167 HD
ENDBRANCH   9  11
ENDBRANCH   8   9
ENDBRANCH   1   7
TORSDOF 3
ENDMDL
MODEL 5
REMARK VINA RESULT:      -4.1     36.380     36.996
REMARK  3 active torsions:
REMARK  status: ('A' for Active; 'I' for Inactive)
REMARK    1  A    between atoms: O_1  and  C_11 
REMARK    2  A    between atoms: C_3  and  C_6 
REMARK    3  A    between atoms: C_10  and  C_11 
ROOT
HETATM    1  C   UNK N   1      77.757  37.064   4.025  0.00  0.00    -0.036 A 
HETATM    2  C   UNK N   1      77.744  38.400   4.486  0.00  0.00     0.011 A 
HETATM    3  C   UNK N   1      78.164  36.048   4.908  0.00  0.00     0.011 A 
HETATM    4  C   UNK N   1      78.121  38.700   5.797  0.00  0.00     0.001 A 
HETATM    5  C   UNK N   1      78.530  36.356   6.223  0.00  0.00     0.001 A 
HETATM    6  C   UNK N   1      78.507  37.680   6.666  0.00  0.00     0.000 A 
ENDROOT
BRANCH   1   7
HETATM    7  C   UNK N   1      77.352  36.690   2.640  0.00  0.00     0.018 C 
HETATM    8  C   UNK N   1      76.963  37.590   1.714  0.00  0.00     0.082 C 
BRANCH   8   9
HETATM    9  C   UNK N   1      76.549  37.194   0.353  0.00  0.00     0.165 C 
HETATM   10  O   UNK N   1      76.896  36.126  -0.125  0.00  0.00    -0.647 OA
BRANCH   9  11
HETATM   11  O   UNK N   1      75.771  38.034  -0.365  0.00  0.00    -0.773 OA
HETATM   12  H   UNK N   1      75.314  38.776   0.054  0.00  0.00     0.167 HD
ENDBRANCH   9  11
ENDBRANCH   8   9
ENDBRANCH   1   7
TORSDOF 3
ENDMDL
MODEL 6
REMARK VINA RESULT:      -3.8     35.320     36.244
REMARK  3 active torsions:
REMARK  status: ('A' for Active; 'I' for Inactive)
REMARK    1  A    between atoms: O_1  and  C_11 
REMARK    2  A    between atoms: C_3  and  C_6 
REMARK    3  A    between atoms: C_10  and  C_11 
ROOT
HETATM    1  C   UNK N   1      77.511  28.150  -5.401  0.00  0.00    -0.036 A 
HETATM    2  C   UNK N   1      78.084  27.535  -6.536  0.00  0.00     0.011 A 
HETATM    3  C   UNK N   1      77.590  27.491  -4.162  0.00  0.00     0.011 A 
HETATM    4  C   UNK N   1      78.724  26.298  -6.423  0.00  0.00     0.001 A 
HETATM    5  C   UNK N   1      78.242  26.258  -4.055  0.00  0.00     0.001 A 
HETATM    6  C   UNK N   1      78.809  25.664  -5.184  0.00  0.00     0.000 A 
ENDROOT
BRANCH   1   7
HETATM    7  C   UNK N   1      76.827  29.474  -5.466  0.00  0.00     0.018 C 
HETATM    8  C   UNK N   1      77.309  30.522  -6.165  0.00  0.00     0.082 C 
BRANCH   8   9
HETATM    9  C   UNK N   1      76.624  31.829  -6.200  0.00  0.00     0.165 C 
HETATM   10  O   UNK N   1      76.767  32.590  -7.144  0.00  0.00    -0.647 OA
BRANCH   9  11
HETATM   11  O   UNK N   1      75.826  32.178  -5.166  0.00  0.00    -0.773 OA
HETATM   12  H   UNK N   1      75.115  31.598  -4.863  0.00  0.00     0.167 HD
ENDBRANCH   9  11
ENDBRANCH   8   9
ENDBRANCH   1   7
TORSDOF 3
ENDMDL
MODEL 7
REMARK VINA RESULT:      -3.6     37.307     38.190
REMARK  3 active torsions:
REMARK  status: ('A' for Active; 'I' for Inactive)
REMARK    1  A    between atoms: O_1  and  C_11 
REMARK    2  A    between atoms: C_3  and  C_6 
REMARK    3  A    between atoms: C_10  and  C_11 
ROOT
HETATM    1  C   UNK N   1      77.430  30.726  -6.991  0.00  0.00    -0.036 A 
HETATM    2  C   UNK N   1      77.493  29.379  -7.413  0.00  0.00     0.011 A 
HETATM    3  C   UNK N   1      77.099  31.002  -5.652  0.00  0.00     0.011 A 
HETATM    4  C   UNK N   1      77.239  28.343  -6.511  0.00  0.00     0.001 A 
HETATM    5  C   UNK N   1      76.856  29.958  -4.753  0.00  0.00     0.001 A 
HETATM    6  C   UNK N   1      76.928  28.631  -5.182  0.00  0.00     0.000 A 
ENDROOT
BRANCH   1   7
HETATM    7  C   UNK N   1      77.705  31.868  -7.910  0.00  0.00     0.018 C 
HETATM    8  C   UNK N   1      78.020  33.106  -7.479  0.00  0.00     0.082 C 
BRANCH   8   9
HETATM    9  C   UNK N   1      78.271  34.226  -8.408  0.00  0.00     0.165 C 
HETATM   10  O   UNK N   1      79.214  34.203  -9.181  0.00  0.00    -0.647 OA
BRANCH   9  11
HETATM   11  O   UNK N   1      77.433  35.287  -8.395  0.00  0.00    -0.773 OA
HETATM   12  H   UNK N   1      76.926  35.536  -9.179  0.00  0.00     0.167 HD
ENDBRANCH   9  11
ENDBRANCH   8   9
ENDBRANCH   1   7
TORSDOF 3
ENDMDL
MODEL 8
REMARK VINA RESULT:      -3.6     35.831     36.908
REMARK  3 active torsions:
REMARK  status: ('A' for Active; 'I' for Inactive)
REMARK    1  A    between atoms: O_1  and  C_11 
REMARK    2  A    between atoms: C_3  and  C_6 
REMARK    3  A    between atoms: C_10  and  C_11 
ROOT
HETATM    1  C   UNK N   1      77.562  30.859  -5.142  0.00  0.00    -0.036 A 
HETATM    2  C   UNK N   1      78.414  31.846  -4.600  0.00  0.00     0.011 A 
HETATM    3  C   UNK N   1      76.791  31.178  -6.274  0.00  0.00     0.011 A 
HETATM    4  C   UNK N   1      78.493  33.112  -5.185  0.00  0.00     0.001 A 
HETATM    5  C   UNK N   1      76.883  32.445  -6.861  0.00  0.00     0.001 A 
HETATM    6  C   UNK N   1      77.734  33.409  -6.317  0.00  0.00     0.000 A 
ENDROOT
BRANCH   1   7
HETATM    7  C   UNK N   1      77.451  29.489  -4.564  0.00  0.00     0.018 C 
HETATM    8  C   UNK N   1      77.643  28.364  -5.282  0.00  0.00     0.082 C 
BRANCH   8   9
HETATM    9  C   UNK N   1      77.511  27.018  -4.691  0.00  0.00     0.165 C 
HETATM   10  O   UNK N   1      77.176  26.871  -3.527  0.00  0.00    -0.647 OA
BRANCH   9  11
HETATM   11  O   UNK N   1      77.764  25.937  -5.463  0.00  0.00    -0.773 OA
HETATM   12  H   UNK N   1      77.151  25.190  -5.497  0.00  0.00     0.167 HD
ENDBRANCH   9  11
ENDBRANCH   8   9
ENDBRANCH   1   7
TORSDOF 3
ENDMDL
MODEL 9
REMARK VINA RESULT:      -3.5     35.831     36.814
REMARK  3 active torsions:
REMARK  status: ('A' for Active; 'I' for Inactive)
REMARK    1  A    between atoms: O_1  and  C_11 
REMARK    2  A    between atoms: C_3  and  C_6 
REMARK    3  A    between atoms: C_10  and  C_11 
ROOT
HETATM    1  C   UNK N   1      78.394  36.940   6.248  0.00  0.00    -0.036 A 
HETATM    2  C   UNK N   1      78.282  38.220   6.836  0.00  0.00     0.011 A 
HETATM    3  C   UNK N   1      78.443  35.812   7.087  0.00  0.00     0.011 A 
HETATM    4  C   UNK N   1      78.213  38.357   8.224  0.00  0.00     0.001 A 
HETATM    5  C   UNK N   1      78.362  35.958   8.476  0.00  0.00     0.001 A 
HETATM    6  C   UNK N   1      78.245  37.228   9.043  0.00  0.00     0.000 A 
ENDROOT
BRANCH   1   7
HETATM    7  C   UNK N   1      78.459  36.738   4.772  0.00  0.00     0.018 C 
HETATM    8  C   UNK N   1      77.645  37.370   3.902  0.00  0.00     0.082 C 
BRANCH   8   9
HETATM    9  C   UNK N   1      77.716  37.141   2.445  0.00  0.00     0.165 C 
HETATM   10  O   UNK N   1      78.348  37.891   1.720  0.00  0.00    -0.647 OA
BRANCH   9  11
HETATM   11  O   UNK N   1      77.068  36.078   1.919  0.00  0.00    -0.773 OA
HETATM   12  H   UNK N   1      77.252  35.773   1.020  0.00  0.00     0.167 HD
ENDBRANCH   9  11
ENDBRANCH   8   9
ENDBRANCH   1   7
TORSDOF 3
ENDMDL
