MODEL 1
REMARK VINA RESULT:      -4.8      0.000      0.000
REMARK  5 active torsions:
REMARK  status: ('A' for Active; 'I' for Inactive)
REMARK    1  A    between atoms: O_1  and  C_6 
REMARK    2  A    between atoms: O_2  and  C_9 
REMARK    3  A    between atoms: O_3  and  C_14 
REMARK    4  A    between atoms: C_5  and  C_11 
REMARK    5  A    between atoms: C_12  and  C_14 
ROOT
HETATM    1  C   UNK N   1      77.245  28.259  -5.061  0.00  0.00    -0.033 A 
HETATM    2  C   UNK N   1      76.863  30.513  -5.914  0.00  0.00     0.102 A 
HETATM    3  C   UNK N   1      76.897  29.608  -4.846  0.00  0.00     0.051 A 
HETATM    4  C   UNK N   1      77.566  27.839  -6.363  0.00  0.00     0.014 A 
HETATM    5  C   UNK N   1      77.174  30.080  -7.209  0.00  0.00     0.099 A 
HETATM    6  C   UNK N   1      77.523  28.743  -7.430  0.00  0.00     0.040 A 
ENDROOT
BRANCH   1   7
HETATM    7  C   UNK N   1      77.283  27.254  -3.961  0.00  0.00     0.018 C 
HETATM    8  C   UNK N   1      78.416  26.656  -3.541  0.00  0.00     0.082 C 
BRANCH   8   9
HETATM    9  C   UNK N   1      78.424  25.675  -2.436  0.00  0.00     0.165 C 
HETATM   10  O   UNK N   1      78.825  25.985  -1.324  0.00  0.00    -0.647 OA
BRANCH   9  11
HETATM   11  O   UNK N   1      77.984  24.421  -2.669  0.00  0.00    -0.773 OA
HETATM   12  H   UNK N   1      77.371  24.230  -3.392  0.00  0.00     0.167 HD
ENDBRANCH   9  11
ENDBRANCH   8   9
ENDBRANCH   1   7
BRANCH   2  13
HETATM   13  O   UNK N   1      76.530  31.800  -5.692  0.00  0.00    -0.353 OA
HETATM   14  C   UNK N   1      77.470  32.719  -5.284  0.00  0.00     0.210 C 
ENDBRANCH   2  13
BRANCH   5  15
HETATM   15  O   UNK N   1      77.128  30.957  -8.234  0.00  0.00    -0.358 OA
HETATM   16  H   UNK N   1      77.317  30.686  -9.143  0.00  0.00     0.218 HD
ENDBRANCH   5  15
TORSDOF 5
ENDMDL
MODEL 2
REMARK VINA RESULT:      -4.5      9.510     13.080
REMARK  5 active torsions:
REMARK  status: ('A' for Active; 'I' for Inactive)
REMARK    1  A    between atoms: O_1  and  C_6 
REMARK    2  A    between atoms: O_2  and  C_9 
REMARK    3  A    between atoms: O_3  and  C_14 
REMARK    4  A    between atoms: C_5  and  C_11 
REMARK    5  A    between atoms: C_12  and  C_14 
ROOT
HETATM    1  C   UNK N   1      80.528  27.309   6.016  0.00  0.00    -0.033 A 
HETATM    2  C   UNK N   1      81.546  27.470   8.227  0.00  0.00     0.102 A 
HETATM    3  C   UNK N   1      81.067  28.083   7.063  0.00  0.00     0.051 A 
HETATM    4  C   UNK N   1      80.471  25.913   6.162  0.00  0.00     0.014 A 
HETATM    5  C   UNK N   1      81.494  26.076   8.357  0.00  0.00     0.099 A 
HETATM    6  C   UNK N   1      80.958  25.301   7.322  0.00  0.00     0.040 A 
ENDROOT
BRANCH   1   7
HETATM    7  C   UNK N   1      80.018  27.913   4.752  0.00  0.00     0.018 C 
HETATM    8  C   UNK N   1      78.939  28.721   4.698  0.00  0.00     0.082 C 
BRANCH   8   9
HETATM    9  C   UNK N   1      78.466  29.318   3.432  0.00  0.00     0.165 C 
HETATM   10  O   UNK N   1      78.811  30.442   3.101  0.00  0.00    -0.647 OA
BRANCH   9  11
HETATM   11  O   UNK N   1      77.640  28.604   2.639  0.00  0.00    -0.773 OA
HETATM   12  H   UNK N   1      77.536  27.649   2.751  0.00  0.00     0.167 HD
ENDBRANCH   9  11
ENDBRANCH   8   9
ENDBRANCH   1   7
BRANCH   2  13
HETATM   13  O   UNK N   1      82.057  28.223   9.222  0.00  0.00    -0.353 OA
HETATM   14  C   UNK N   1      83.340  28.717   9.152  0.00  0.00     0.210 C 
ENDBRANCH   2  13
BRANCH   5  15
HETATM   15  O   UNK N   1      81.968  25.492   9.478  0.00  0.00    -0.358 OA
HETATM   16  H   UNK N   1      82.648  24.805   9.444  0.00  0.00     0.218 HD
ENDBRANCH   5  15
TORSDOF 5
ENDMDL
MODEL 3
REMARK VINA RESULT:      -4.4      1.555      2.548
REMARK  5 active torsions:
REMARK  status: ('A' for Active; 'I' for Inactive)
REMARK    1  A    between atoms: O_1  and  C_6 
REMARK    2  A    between atoms: O_2  and  C_9 
REMARK    3  A    between atoms: O_3  and  C_14 
REMARK    4  A    between atoms: C_5  and  C_11 
REMARK    5  A    between atoms: C_12  and  C_14 
ROOT
HETATM    1  C   UNK N   1      77.771  29.478  -5.670  0.00  0.00    -0.033 A 
HETATM    2  C   UNK N   1      77.787  31.051  -7.535  0.00  0.00     0.102 A 
HETATM    3  C   UNK N   1      78.203  29.843  -6.961  0.00  0.00     0.051 A 
HETATM    4  C   UNK N   1      76.911  30.342  -4.972  0.00  0.00     0.014 A 
HETATM    5  C   UNK N   1      76.939  31.909  -6.825  0.00  0.00     0.099 A 
HETATM    6  C   UNK N   1      76.504  31.552  -5.543  0.00  0.00     0.040 A 
ENDROOT
BRANCH   1   7
HETATM    7  C   UNK N   1      78.195  28.211  -5.010  0.00  0.00     0.018 C 
HETATM    8  C   UNK N   1      77.438  27.555  -4.107  0.00  0.00     0.082 C 
BRANCH   8   9
HETATM    9  C   UNK N   1      77.878  26.291  -3.481  0.00  0.00     0.165 C 
HETATM   10  O   UNK N   1      78.873  25.706  -3.881  0.00  0.00    -0.647 OA
BRANCH   9  11
HETATM   11  O   UNK N   1      77.162  25.782  -2.457  0.00  0.00    -0.773 OA
HETATM   12  H   UNK N   1      76.197  25.850  -2.435  0.00  0.00     0.167 HD
ENDBRANCH   9  11
ENDBRANCH   8   9
ENDBRANCH   1   7
BRANCH   2  13
HETATM   13  O   UNK N   1      78.206  31.385  -8.772  0.00  0.00    -0.353 OA
HETATM   14  C   UNK N   1      79.547  31.484  -9.066  0.00  0.00     0.210 C 
ENDBRANCH   2  13
BRANCH   5  15
HETATM   15  O   UNK N   1      76.552  33.077  -7.381  0.00  0.00    -0.358 OA
HETATM   16  H   UNK N   1      77.023  33.462  -8.133  0.00  0.00     0.218 HD
ENDBRANCH   5  15
TORSDOF 5
ENDMDL
MODEL 4
REMARK VINA RESULT:      -4.4      1.150      2.655
REMARK  5 active torsions:
REMARK  status: ('A' for Active; 'I' for Inactive)
REMARK    1  A    between atoms: O_1  and  C_6 
REMARK    2  A    between atoms: O_2  and  C_9 
REMARK    3  A    between atoms: O_3  and  C_14 
REMARK    4  A    between atoms: C_5  and  C_11 
REMARK    5  A    between atoms: C_12  and  C_14 
ROOT
HETATM    1  C   UNK N   1      77.425  27.973  -4.904  0.00  0.00    -0.033 A 
HETATM    2  C   UNK N   1      77.815  28.474  -7.260  0.00  0.00     0.102 A 
HETATM    3  C   UNK N   1      77.897  27.591  -6.177  0.00  0.00     0.051 A 
HETATM    4  C   UNK N   1      76.863  29.251  -4.744  0.00  0.00     0.014 A 
HETATM    5  C   UNK N   1      77.264  29.749  -7.085  0.00  0.00     0.099 A 
HETATM    6  C   UNK N   1      76.791  30.135  -5.825  0.00  0.00     0.040 A 
ENDROOT
BRANCH   1   7
HETATM    7  C   UNK N   1      77.501  27.076  -3.717  0.00  0.00     0.018 C 
HETATM    8  C   UNK N   1      78.643  26.494  -3.298  0.00  0.00     0.082 C 
BRANCH   8   9
HETATM    9  C   UNK N   1      78.691  25.621  -2.107  0.00  0.00     0.165 C 
HETATM   10  O   UNK N   1      79.452  25.862  -1.182  0.00  0.00    -0.647 OA
BRANCH   9  11
HETATM   11  O   UNK N   1      77.880  24.544  -2.050  0.00  0.00    -0.773 OA
HETATM   12  H   UNK N   1      77.864  23.967  -1.274  0.00  0.00     0.167 HD
ENDBRANCH   9  11
ENDBRANCH   8   9
ENDBRANCH   1   7
BRANCH   2  13
HETATM   13  O   UNK N   1      78.270  28.094  -8.471  0.00  0.00    -0.353 OA
HETATM   14  C   UNK N   1      78.422  26.764  -8.789  0.00  0.00     0.210 C 
ENDBRANCH   2  13
BRANCH   5  15
HETATM   15  O   UNK N   1      77.200  30.599  -8.132  0.00  0.00    -0.358 OA
HETATM   16  H   UNK N   1      76.596  30.447  -8.873  0.00  0.00     0.218 HD
ENDBRANCH   5  15
TORSDOF 5
ENDMDL
MODEL 5
REMARK VINA RESULT:      -4.3      1.325      1.639
REMARK  5 active torsions:
REMARK  status: ('A' for Active; 'I' for Inactive)
REMARK    1  A    between atoms: O_1  and  C_6 
REMARK    2  A    between atoms: O_2  and  C_9 
REMARK    3  A    between atoms: O_3  and  C_14 
REMARK    4  A    between atoms: C_5  and  C_11 
REMARK    5  A    between atoms: C_12  and  C_14 
ROOT
HETATM    1  C   UNK N   1      77.103  29.339  -5.520  0.00  0.00    -0.033 A 
HETATM    2  C   UNK N   1      77.221  31.775  -5.470  0.00  0.00     0.102 A 
HETATM    3  C   UNK N   1      77.242  30.544  -4.802  0.00  0.00     0.051 A 
HETATM    4  C   UNK N   1      76.954  29.392  -6.916  0.00  0.00     0.014 A 
HETATM    5  C   UNK N   1      77.060  31.816  -6.860  0.00  0.00     0.099 A 
HETATM    6  C   UNK N   1      76.924  30.623  -7.580  0.00  0.00     0.040 A 
ENDROOT
BRANCH   1   7
HETATM    7  C   UNK N   1      77.106  28.004  -4.856  0.00  0.00     0.018 C 
HETATM    8  C   UNK N   1      78.120  27.560  -4.087  0.00  0.00     0.082 C 
BRANCH   8   9
HETATM    9  C   UNK N   1      78.087  26.238  -3.428  0.00  0.00     0.165 C 
HETATM   10  O   UNK N   1      78.947  25.401  -3.656  0.00  0.00    -0.647 OA
BRANCH   9  11
HETATM   11  O   UNK N   1      77.087  25.960  -2.566  0.00  0.00    -0.773 OA
HETATM   12  H   UNK N   1      76.749  25.060  -2.461  0.00  0.00     0.167 HD
ENDBRANCH   9  11
ENDBRANCH   8   9
ENDBRANCH   1   7
BRANCH   2  13
HETATM   13  O   UNK N   1      77.356  32.920  -4.770  0.00  0.00    -0.353 OA
HETATM   14  C   UNK N   1      78.575  33.299  -4.255  0.00  0.00     0.210 C 
ENDBRANCH   2  13
BRANCH   5  15
HETATM   15  O   UNK N   1      77.029  33.008  -7.494  0.00  0.00    -0.358 OA
HETATM   16  H   UNK N   1      77.841  33.468  -7.749  0.00  0.00     0.218 HD
ENDBRANCH   5  15
TORSDOF 5
ENDMDL
MODEL 6
REMARK VINA RESULT:      -4.3      2.032      5.688
REMARK  5 active torsions:
REMARK  status: ('A' for Active; 'I' for Inactive)
REMARK    1  A    between atoms: O_1  and  C_6 
REMARK    2  A    between atoms: O_2  and  C_9 
REMARK    3  A    between atoms: O_3  and  C_14 
REMARK    4  A    between atoms: C_5  and  C_11 
REMARK    5  A    between atoms: C_12  and  C_14 
ROOT
HETATM    1  C   UNK N   1      76.965  30.263  -5.810  0.00  0.00    -0.033 A 
HETATM    2  C   UNK N   1      77.447  27.965  -5.148  0.00  0.00     0.102 A 
HETATM    3  C   UNK N   1      77.122  29.284  -4.808  0.00  0.00     0.051 A 
HETATM    4  C   UNK N   1      77.131  29.892  -7.155  0.00  0.00     0.014 A 
HETATM    5  C   UNK N   1      77.622  27.610  -6.491  0.00  0.00     0.099 A 
HETATM    6  C   UNK N   1      77.465  28.577  -7.492  0.00  0.00     0.040 A 
ENDROOT
BRANCH   1   7
HETATM    7  C   UNK N   1      76.632  31.683  -5.500  0.00  0.00     0.018 C 
HETATM    8  C   UNK N   1      77.563  32.626  -5.252  0.00  0.00     0.082 C 
BRANCH   8   9
HETATM    9  C   UNK N   1      77.203  34.030  -4.964  0.00  0.00     0.165 C 
HETATM   10  O   UNK N   1      77.953  34.945  -5.267  0.00  0.00    -0.647 OA
BRANCH   9  11
HETATM   11  O   UNK N   1      76.028  34.294  -4.355  0.00  0.00    -0.773 OA
HETATM   12  H   UNK N   1      75.987  34.842  -3.558  0.00  0.00     0.167 HD
ENDBRANCH   9  11
ENDBRANCH   8   9
ENDBRANCH   1   7
BRANCH   2  13
HETATM   13  O   UNK N   1      77.592  27.039  -4.179  0.00  0.00    -0.353 OA
HETATM   14  C   UNK N   1      78.775  26.914  -3.486  0.00  0.00     0.210 C 
ENDBRANCH   2  13
BRANCH   5  15
HETATM   15  O   UNK N   1      77.947  26.339  -6.809  0.00  0.00    -0.358 OA
HETATM   16  H   UNK N   1      77.507  25.583  -6.395  0.00  0.00     0.218 HD
ENDBRANCH   5  15
TORSDOF 5
ENDMDL
MODEL 7
REMARK VINA RESULT:      -4.1      2.697      3.608
REMARK  5 active torsions:
REMARK  status: ('A' for Active; 'I' for Inactive)
REMARK    1  A    between atoms: O_1  and  C_6 
REMARK    2  A    between atoms: O_2  and  C_9 
REMARK    3  A    between atoms: O_3  and  C_14 
REMARK    4  A    between atoms: C_5  and  C_11 
REMARK    5  A    between atoms: C_12  and  C_14 
ROOT
HETATM    1  C   UNK N   1      77.502  29.537  -6.869  0.00  0.00    -0.033 A 
HETATM    2  C   UNK N   1      77.205  31.954  -7.011  0.00  0.00     0.102 A 
HETATM    3  C   UNK N   1      77.616  30.745  -7.586  0.00  0.00     0.051 A 
HETATM    4  C   UNK N   1      76.961  29.564  -5.572  0.00  0.00     0.014 A 
HETATM    5  C   UNK N   1      76.679  31.970  -5.714  0.00  0.00     0.099 A 
HETATM    6  C   UNK N   1      76.560  30.774  -4.997  0.00  0.00     0.040 A 
ENDROOT
BRANCH   1   7
HETATM    7  C   UNK N   1      77.936  28.226  -7.430  0.00  0.00     0.018 C 
HETATM    8  C   UNK N   1      78.079  27.111  -6.685  0.00  0.00     0.082 C 
BRANCH   8   9
HETATM    9  C   UNK N   1      78.495  25.821  -7.273  0.00  0.00     0.165 C 
HETATM   10  O   UNK N   1      79.311  25.779  -8.181  0.00  0.00    -0.647 OA
BRANCH   9  11
HETATM   11  O   UNK N   1      77.958  24.679  -6.796  0.00  0.00    -0.773 OA
HETATM   12  H   UNK N   1      77.120  24.681  -6.313  0.00  0.00     0.167 HD
ENDBRANCH   9  11
ENDBRANCH   8   9
ENDBRANCH   1   7
BRANCH   2  13
HETATM   13  O   UNK N   1      77.319  33.102  -7.710  0.00  0.00    -0.353 OA
HETATM   14  C   UNK N   1      78.503  33.450  -8.318  0.00  0.00     0.210 C 
ENDBRANCH   2  13
BRANCH   5  15
HETATM   15  O   UNK N   1      76.296  33.143  -5.164  0.00  0.00    -0.358 OA
HETATM   16  H   UNK N   1      75.533  33.635  -5.497  0.00  0.00     0.218 HD
ENDBRANCH   5  15
TORSDOF 5
ENDMDL
MODEL 8
REMARK VINA RESULT:      -4.0      8.186      9.888
REMARK  5 active torsions:
REMARK  status: ('A' for Active; 'I' for Inactive)
REMARK    1  A    between atoms: O_1  and  C_6 
REMARK    2  A    between atoms: O_2  and  C_9 
REMARK    3  A    between atoms: O_3  and  C_14 
REMARK    4  A    between atoms: C_5  and  C_11 
REMARK    5  A    between atoms: C_12  and  C_14 
ROOT
HETATM    1  C   UNK N   1      76.491  36.521  -0.705  0.00  0.00    -0.033 A 
HETATM    2  C   UNK N   1      74.881  37.446  -2.288  0.00  0.00     0.102 A 
HETATM    3  C   UNK N   1      75.632  37.562  -1.111  0.00  0.00     0.051 A 
HETATM    4  C   UNK N   1      76.588  35.369  -1.503  0.00  0.00     0.014 A 
HETATM    5  C   UNK N   1      74.978  36.288  -3.069  0.00  0.00     0.099 A 
HETATM    6  C   UNK N   1      75.831  35.251  -2.673  0.00  0.00     0.040 A 
ENDROOT
BRANCH   1   7
HETATM    7  C   UNK N   1      77.301  36.591   0.545  0.00  0.00     0.018 C 
HETATM    8  C   UNK N   1      76.861  37.163   1.683  0.00  0.00     0.082 C 
BRANCH   8   9
HETATM    9  C   UNK N   1      77.681  37.202   2.912  0.00  0.00     0.165 C 
HETATM   10  O   UNK N   1      77.530  38.088   3.739  0.00  0.00    -0.647 OA
BRANCH   9  11
HETATM   11  O   UNK N   1      78.608  36.243   3.112  0.00  0.00    -0.773 OA
HETATM   12  H   UNK N   1      78.381  35.305   3.058  0.00  0.00     0.167 HD
ENDBRANCH   9  11
ENDBRANCH   8   9
ENDBRANCH   1   7
BRANCH   2  13
HETATM   13  O   UNK N   1      74.065  38.450  -2.665  0.00  0.00    -0.353 OA
HETATM   14  C   UNK N   1      74.552  39.550  -3.334  0.00  0.00     0.210 C 
ENDBRANCH   2  13
BRANCH   5  15
HETATM   15  O   UNK N   1      74.242  36.179  -4.196  0.00  0.00    -0.358 OA
HETATM   16  H   UNK N   1      74.648  35.981  -5.051  0.00  0.00     0.218 HD
ENDBRANCH   5  15
TORSDOF 5
ENDMDL
MODEL 9
REMARK VINA RESULT:      -3.9     12.714     14.651
REMARK  5 active torsions:
REMARK  status: ('A' for Active; 'I' for Inactive)
REMARK    1  A    between atoms: O_1  and  C_6 
REMARK    2  A    between atoms: O_2  and  C_9 
REMARK    3  A    between atoms: O_3  and  C_14 
REMARK    4  A    between atoms: C_5  and  C_11 
REMARK    5  A    between atoms: C_12  and  C_14 
ROOT
HETATM    1  C   UNK N   1      82.648  26.493   7.636  0.00  0.00    -0.033 A 
HETATM    2  C   UNK N   1      82.996  24.805   5.909  0.00  0.00     0.102 A 
HETATM    3  C   UNK N   1      83.495  25.825   6.727  0.00  0.00     0.051 A 
HETATM    4  C   UNK N   1      81.298  26.111   7.713  0.00  0.00     0.014 A 
HETATM    5  C   UNK N   1      81.646  24.441   5.987  0.00  0.00     0.099 A 
HETATM    6  C   UNK N   1      80.800  25.098   6.888  0.00  0.00     0.040 A 
ENDROOT
BRANCH   1   7
HETATM    7  C   UNK N   1      83.127  27.594   8.519  0.00  0.00     0.018 C 
HETATM    8  C   UNK N   1      82.524  27.931   9.677  0.00  0.00     0.082 C 
BRANCH   8   9
HETATM    9  C   UNK N   1      83.032  29.017  10.541  0.00  0.00     0.165 C 
HETATM   10  O   UNK N   1      83.112  28.872  11.751  0.00  0.00    -0.647 OA
BRANCH   9  11
HETATM   11  O   UNK N   1      83.408  30.183   9.975  0.00  0.00    -0.773 OA
HETATM   12  H   UNK N   1      83.739  30.218   9.067  0.00  0.00     0.167 HD
ENDBRANCH   9  11
ENDBRANCH   8   9
ENDBRANCH   1   7
BRANCH   2  13
HETATM   13  O   UNK N   1      83.818  24.174   5.046  0.00  0.00    -0.353 OA
HETATM   14  C   UNK N   1      84.936  23.505   5.488  0.00  0.00     0.210 C 
ENDBRANCH   2  13
BRANCH   5  15
HETATM   15  O   UNK N   1      81.171  23.464   5.186  0.00  0.00    -0.358 OA
HETATM   16  H   UNK N   1      81.738  22.750   4.863  0.00  0.00     0.218 HD
ENDBRANCH   5  15
TORSDOF 5
ENDMDL
