MODEL 1
REMARK VINA RESULT:      -5.4      0.000      0.000
REMARK  9 active torsions:
REMARK  status: ('A' for Active; 'I' for Inactive)
REMARK    1  A    between atoms: O_1  and  C_13 
REMARK    2  A    between atoms: O_2  and  C_15 
REMARK    3  A    between atoms: O_3  and  C_16 
REMARK    4  A    between atoms: O_4  and  C_22 
REMARK    5  A    between atoms: N_7  and  C_14 
REMARK    6  A    between atoms: C_13  and  C_14 
REMARK    7  A    between atoms: C_13  and  C_15 
REMARK    8  A    between atoms: C_15  and  C_16 
REMARK    9  A    between atoms: C_16  and  C_22 
ROOT
HETATM    1  O   UNK N   1      85.568  22.863   4.665  0.00  0.00    -0.265 OA
HETATM    2  O   UNK N   1      81.155  22.764   3.863  0.00  0.00    -0.247 OA
HETATM    3  N   UNK N   1      82.781  26.023   6.716  0.00  0.00    -0.327 N 
HETATM    4  N   UNK N   1      85.327  24.996   6.310  0.00  0.00    -0.347 N 
ATOM      5  HN  UNK N   1      86.262  24.618   6.157  1.00  0.00     0.166 HD
HETATM    6  N   UNK N   1      81.931  24.357   5.233  0.00  0.00    -0.292 N 
ATOM      7  HN  UNK N   1      80.991  24.728   5.368  1.00  0.00     0.172 HD
HETATM    8  N   UNK N   1      83.371  22.762   4.220  0.00  0.00    -0.273 N 
HETATM    9  C   UNK N   1      83.874  26.585   7.367  0.00  0.00     0.063 A 
HETATM   10  C   UNK N   1      82.979  24.950   5.871  0.00  0.00     0.145 A 
HETATM   11  C   UNK N   1      85.166  26.051   7.140  0.00  0.00     0.060 A 
HETATM   12  C   UNK N   1      83.757  27.689   8.249  0.00  0.00     0.039 A 
HETATM   13  C   UNK N   1      84.274  24.433   5.679  0.00  0.00     0.146 A 
HETATM   14  C   UNK N   1      84.892  28.245   8.871  0.00  0.00    -0.054 A 
HETATM   15  C   UNK N   1      86.288  26.598   7.762  0.00  0.00     0.039 A 
HETATM   16  C   UNK N   1      86.168  27.693   8.624  0.00  0.00    -0.054 A 
HETATM   17  C   UNK N   1      84.453  23.329   4.841  0.00  0.00     0.280 A 
HETATM   18  C   UNK N   1      84.732  29.430   9.789  0.00  0.00     0.049 C 
HETATM   19  C   UNK N   1      87.406  28.260   9.270  0.00  0.00     0.049 C 
HETATM   20  C   UNK N   1      82.113  23.273   4.414  0.00  0.00     0.328 A 
HETATM   21  H   UNK N   1      83.506  21.933   3.596  0.00  0.00     0.173 HD
ENDROOT
BRANCH   3  22
HETATM   22  C   UNK N   1      81.401  26.537   6.926  0.00  0.00     0.165 C 
BRANCH  22  23
HETATM   23  C   UNK N   1      81.118  27.724   5.978  0.00  0.00     0.167 C 
BRANCH  23  24
HETATM   24  O   UNK N   1      80.665  28.819   6.734  0.00  0.00    -0.391 OA
HETATM   25  H   UNK N   1      79.725  28.995   6.467  0.00  0.00     0.210 HD
ENDBRANCH  23  24
BRANCH  23  26
HETATM   26  C   UNK N   1      80.054  27.380   4.905  0.00  0.00     0.179 C 
BRANCH  26  27
HETATM   27  O   UNK N   1      80.668  26.651   3.871  0.00  0.00    -0.390 OA
HETATM   28  H   UNK N   1      80.583  27.191   3.041  0.00  0.00     0.210 HD
ENDBRANCH  26  27
BRANCH  26  29
HETATM   29  C   UNK N   1      79.340  28.637   4.326  0.00  0.00     0.173 C 
BRANCH  29  30
HETATM   30  O   UNK N   1      78.350  29.049   5.238  0.00  0.00    -0.391 OA
HETATM   31  H   UNK N   1      77.491  29.105   4.744  0.00  0.00     0.210 HD
ENDBRANCH  29  30
BRANCH  29  32
HETATM   32  C   UNK N   1      78.700  28.381   2.943  0.00  0.00     0.198 C 
BRANCH  32  33
HETATM   33  O   UNK N   1      77.846  27.270   2.984  0.00  0.00    -0.398 OA
HETATM   34  H   UNK N   1      77.073  27.528   3.554  0.00  0.00     0.209 HD
ENDBRANCH  32  33
ENDBRANCH  29  32
ENDBRANCH  26  29
ENDBRANCH  23  26
ENDBRANCH  22  23
ENDBRANCH   3  22
TORSDOF 9
ENDMDL
MODEL 2
REMARK VINA RESULT:      -5.3      1.643      2.352
REMARK  9 active torsions:
REMARK  status: ('A' for Active; 'I' for Inactive)
REMARK    1  A    between atoms: O_1  and  C_13 
REMARK    2  A    between atoms: O_2  and  C_15 
REMARK    3  A    between atoms: O_3  and  C_16 
REMARK    4  A    between atoms: O_4  and  C_22 
REMARK    5  A    between atoms: N_7  and  C_14 
REMARK    6  A    between atoms: C_13  and  C_14 
REMARK    7  A    between atoms: C_13  and  C_15 
REMARK    8  A    between atoms: C_15  and  C_16 
REMARK    9  A    between atoms: C_16  and  C_22 
ROOT
HETATM    1  O   UNK N   1      87.241  25.744   6.447  0.00  0.00    -0.265 OA
HETATM    2  O   UNK N   1      83.958  24.592   3.614  0.00  0.00    -0.247 OA
HETATM    3  N   UNK N   1      82.803  26.815   7.504  0.00  0.00    -0.327 N 
HETATM    4  N   UNK N   1      85.496  26.878   8.173  0.00  0.00    -0.347 N 
ATOM      5  HN  UNK N   1      86.486  26.901   8.415  1.00  0.00     0.166 HD
HETATM    6  N   UNK N   1      83.387  25.682   5.486  0.00  0.00    -0.292 N 
ATOM      7  HN  UNK N   1      82.402  25.657   5.224  1.00  0.00     0.172 HD
HETATM    8  N   UNK N   1      85.647  25.143   4.987  0.00  0.00    -0.273 N 
HETATM    9  C   UNK N   1      83.213  27.390   8.701  0.00  0.00     0.063 A 
HETATM   10  C   UNK N   1      83.750  26.275   6.658  0.00  0.00     0.145 A 
HETATM   11  C   UNK N   1      84.593  27.420   9.021  0.00  0.00     0.060 A 
HETATM   12  C   UNK N   1      82.305  27.968   9.625  0.00  0.00     0.039 A 
HETATM   13  C   UNK N   1      85.112  26.306   7.012  0.00  0.00     0.146 A 
HETATM   14  C   UNK N   1      82.762  28.562  10.817  0.00  0.00    -0.054 A 
HETATM   15  C   UNK N   1      85.043  28.002  10.205  0.00  0.00     0.039 A 
HETATM   16  C   UNK N   1      84.144  28.579  11.108  0.00  0.00    -0.054 A 
HETATM   17  C   UNK N   1      86.056  25.731   6.155  0.00  0.00     0.280 A 
HETATM   18  C   UNK N   1      81.769  29.183  11.768  0.00  0.00     0.049 C 
HETATM   19  C   UNK N   1      84.671  29.205  12.374  0.00  0.00     0.049 C 
HETATM   20  C   UNK N   1      84.317  25.118   4.651  0.00  0.00     0.328 A 
HETATM   21  H   UNK N   1      86.353  24.708   4.349  0.00  0.00     0.173 HD
ENDROOT
BRANCH   3  22
HETATM   22  C   UNK N   1      81.367  26.748   7.123  0.00  0.00     0.165 C 
BRANCH  22  23
HETATM   23  C   UNK N   1      81.018  27.883   6.134  0.00  0.00     0.167 C 
BRANCH  23  24
HETATM   24  O   UNK N   1      80.443  28.952   6.844  0.00  0.00    -0.391 OA
HETATM   25  H   UNK N   1      81.027  29.136   7.625  0.00  0.00     0.210 HD
ENDBRANCH  23  24
BRANCH  23  26
HETATM   26  C   UNK N   1      80.028  27.422   5.034  0.00  0.00     0.179 C 
BRANCH  26  27
HETATM   27  O   UNK N   1      80.716  26.614   4.111  0.00  0.00    -0.390 OA
HETATM   28  H   UNK N   1      81.071  25.833   4.611  0.00  0.00     0.210 HD
ENDBRANCH  26  27
BRANCH  26  29
HETATM   29  C   UNK N   1      79.334  28.606   4.299  0.00  0.00     0.173 C 
BRANCH  29  30
HETATM   30  O   UNK N   1      78.262  29.058   5.092  0.00  0.00    -0.391 OA
HETATM   31  H   UNK N   1      77.516  28.413   4.984  0.00  0.00     0.210 HD
ENDBRANCH  29  30
BRANCH  29  32
HETATM   32  C   UNK N   1      78.819  28.223   2.894  0.00  0.00     0.198 C 
BRANCH  32  33
HETATM   33  O   UNK N   1      77.871  27.193   2.972  0.00  0.00    -0.398 OA
HETATM   34  H   UNK N   1      78.381  26.340   3.011  0.00  0.00     0.209 HD
ENDBRANCH  32  33
ENDBRANCH  29  32
ENDBRANCH  26  29
ENDBRANCH  23  26
ENDBRANCH  22  23
ENDBRANCH   3  22
TORSDOF 9
ENDMDL
MODEL 3
REMARK VINA RESULT:      -5.3      2.944      5.758
REMARK  9 active torsions:
REMARK  status: ('A' for Active; 'I' for Inactive)
REMARK    1  A    between atoms: O_1  and  C_13 
REMARK    2  A    between atoms: O_2  and  C_15 
REMARK    3  A    between atoms: O_3  and  C_16 
REMARK    4  A    between atoms: O_4  and  C_22 
REMARK    5  A    between atoms: N_7  and  C_14 
REMARK    6  A    between atoms: C_13  and  C_14 
REMARK    7  A    between atoms: C_13  and  C_15 
REMARK    8  A    between atoms: C_15  and  C_16 
REMARK    9  A    between atoms: C_16  and  C_22 
ROOT
HETATM    1  O   UNK N   1      86.754  29.155   5.707  0.00  0.00    -0.265 OA
HETATM    2  O   UNK N   1      85.422  26.632   9.170  0.00  0.00    -0.247 OA
HETATM    3  N   UNK N   1      82.185  28.326   6.332  0.00  0.00    -0.327 N 
HETATM    4  N   UNK N   1      84.213  29.517   4.858  0.00  0.00    -0.347 N 
ATOM      5  HN  UNK N   1      84.960  29.952   4.318  1.00  0.00     0.166 HD
HETATM    6  N   UNK N   1      83.846  27.433   7.794  0.00  0.00    -0.292 N 
ATOM      7  HN  UNK N   1      83.112  26.984   8.342  1.00  0.00     0.172 HD
HETATM    8  N   UNK N   1      86.154  27.883   7.455  0.00  0.00    -0.273 N 
HETATM    9  C   UNK N   1      81.878  29.099   5.218  0.00  0.00     0.063 A 
HETATM   10  C   UNK N   1      83.506  28.163   6.695  0.00  0.00     0.145 A 
HETATM   11  C   UNK N   1      82.928  29.692   4.474  0.00  0.00     0.060 A 
HETATM   12  C   UNK N   1      80.548  29.315   4.776  0.00  0.00     0.039 A 
HETATM   13  C   UNK N   1      84.525  28.779   5.945  0.00  0.00     0.146 A 
HETATM   14  C   UNK N   1      80.280  30.085   3.628  0.00  0.00    -0.054 A 
HETATM   15  C   UNK N   1      82.660  30.460   3.342  0.00  0.00     0.039 A 
HETATM   16  C   UNK N   1      81.347  30.662   2.905  0.00  0.00    -0.054 A 
HETATM   17  C   UNK N   1      85.857  28.625   6.343  0.00  0.00     0.280 A 
HETATM   18  C   UNK N   1      78.854  30.279   3.178  0.00  0.00     0.049 C 
HETATM   19  C   UNK N   1      81.101  31.493   1.672  0.00  0.00     0.049 C 
HETATM   20  C   UNK N   1      85.153  27.287   8.180  0.00  0.00     0.328 A 
HETATM   21  H   UNK N   1      87.150  27.773   7.755  0.00  0.00     0.173 HD
ENDROOT
BRANCH   3  22
HETATM   22  C   UNK N   1      81.122  27.690   7.155  0.00  0.00     0.165 C 
BRANCH  22  23
HETATM   23  C   UNK N   1      80.588  26.419   6.456  0.00  0.00     0.167 C 
BRANCH  23  24
HETATM   24  O   UNK N   1      79.182  26.442   6.470  0.00  0.00    -0.391 OA
HETATM   25  H   UNK N   1      78.877  25.613   6.923  0.00  0.00     0.210 HD
ENDBRANCH  23  24
BRANCH  23  26
HETATM   26  C   UNK N   1      81.076  25.119   7.145  0.00  0.00     0.179 C 
BRANCH  26  27
HETATM   27  O   UNK N   1      81.666  25.450   8.378  0.00  0.00    -0.390 OA
HETATM   28  H   UNK N   1      81.679  26.442   8.441  0.00  0.00     0.210 HD
ENDBRANCH  26  27
BRANCH  26  29
HETATM   29  C   UNK N   1      82.075  24.302   6.274  0.00  0.00     0.173 C 
BRANCH  29  30
HETATM   30  O   UNK N   1      83.342  24.908   6.359  0.00  0.00    -0.391 OA
HETATM   31  H   UNK N   1      83.943  24.439   5.723  0.00  0.00     0.210 HD
ENDBRANCH  29  30
BRANCH  29  32
HETATM   32  C   UNK N   1      81.643  24.204   4.794  0.00  0.00     0.198 C 
BRANCH  32  33
HETATM   33  O   UNK N   1      80.995  22.987   4.541  0.00  0.00    -0.398 OA
HETATM   34  H   UNK N   1      80.406  22.811   5.323  0.00  0.00     0.209 HD
ENDBRANCH  32  33
ENDBRANCH  29  32
ENDBRANCH  26  29
ENDBRANCH  23  26
ENDBRANCH  22  23
ENDBRANCH   3  22
TORSDOF 9
ENDMDL
MODEL 4
REMARK VINA RESULT:      -5.3     11.749     15.095
REMARK  9 active torsions:
REMARK  status: ('A' for Active; 'I' for Inactive)
REMARK    1  A    between atoms: O_1  and  C_13 
REMARK    2  A    between atoms: O_2  and  C_15 
REMARK    3  A    between atoms: O_3  and  C_16 
REMARK    4  A    between atoms: O_4  and  C_22 
REMARK    5  A    between atoms: N_7  and  C_14 
REMARK    6  A    between atoms: C_13  and  C_14 
REMARK    7  A    between atoms: C_13  and  C_15 
REMARK    8  A    between atoms: C_15  and  C_16 
REMARK    9  A    between atoms: C_16  and  C_22 
ROOT
HETATM    1  O   UNK N   1      75.838  42.788   2.472  0.00  0.00    -0.265 OA
HETATM    2  O   UNK N   1      75.939  41.334  -1.771  0.00  0.00    -0.247 OA
HETATM    3  N   UNK N   1      77.403  38.468   1.553  0.00  0.00    -0.327 N 
HETATM    4  N   UNK N   1      76.831  40.453   3.406  0.00  0.00    -0.347 N 
ATOM      5  HN  UNK N   1      76.618  41.183   4.085  1.00  0.00     0.166 HD
HETATM    6  N   UNK N   1      76.635  39.931  -0.170  0.00  0.00    -0.292 N 
ATOM      7  HN  UNK N   1      76.835  39.208  -0.861  1.00  0.00     0.172 HD
HETATM    8  N   UNK N   1      75.859  42.120   0.330  0.00  0.00    -0.273 N 
HETATM    9  C   UNK N   1      77.652  38.255   2.904  0.00  0.00     0.063 A 
HETATM   10  C   UNK N   1      76.872  39.675   1.148  0.00  0.00     0.145 A 
HETATM   11  C   UNK N   1      77.346  39.278   3.835  0.00  0.00     0.060 A 
HETATM   12  C   UNK N   1      78.194  37.043   3.403  0.00  0.00     0.039 A 
HETATM   13  C   UNK N   1      76.594  40.677   2.096  0.00  0.00     0.146 A 
HETATM   14  C   UNK N   1      78.410  36.859   4.783  0.00  0.00    -0.054 A 
HETATM   15  C   UNK N   1      77.567  39.096   5.200  0.00  0.00     0.039 A 
HETATM   16  C   UNK N   1      78.093  37.896   5.688  0.00  0.00    -0.054 A 
HETATM   17  C   UNK N   1      76.081  41.905   1.665  0.00  0.00     0.280 A 
HETATM   18  C   UNK N   1      78.971  35.551   5.279  0.00  0.00     0.049 C 
HETATM   19  C   UNK N   1      78.310  37.735   7.171  0.00  0.00     0.049 C 
HETATM   20  C   UNK N   1      76.134  41.137  -0.586  0.00  0.00     0.328 A 
HETATM   21  H   UNK N   1      75.481  43.040   0.009  0.00  0.00     0.173 HD
ENDROOT
BRANCH   3  22
HETATM   22  C   UNK N   1      77.714  37.432   0.531  0.00  0.00     0.165 C 
BRANCH  22  23
HETATM   23  C   UNK N   1      76.437  36.654   0.145  0.00  0.00     0.167 C 
BRANCH  23  24
HETATM   24  O   UNK N   1      76.639  35.285   0.392  0.00  0.00    -0.391 OA
HETATM   25  H   UNK N   1      75.875  34.966   0.938  0.00  0.00     0.210 HD
ENDBRANCH  23  24
BRANCH  23  26
HETATM   26  C   UNK N   1      76.059  36.845  -1.346  0.00  0.00     0.179 C 
BRANCH  26  27
HETATM   27  O   UNK N   1      74.880  37.607  -1.424  0.00  0.00    -0.390 OA
HETATM   28  H   UNK N   1      74.119  36.988  -1.271  0.00  0.00     0.210 HD
ENDBRANCH  26  27
BRANCH  26  29
HETATM   29  C   UNK N   1      75.881  35.500  -2.110  0.00  0.00     0.173 C 
BRANCH  29  30
HETATM   30  O   UNK N   1      77.141  34.886  -2.236  0.00  0.00    -0.391 OA
HETATM   31  H   UNK N   1      76.996  33.904  -2.252  0.00  0.00     0.210 HD
ENDBRANCH  29  30
BRANCH  29  32
HETATM   32  C   UNK N   1      75.246  35.681  -3.507  0.00  0.00     0.198 C 
BRANCH  32  33
HETATM   33  O   UNK N   1      73.855  35.513  -3.450  0.00  0.00    -0.398 OA
HETATM   34  H   UNK N   1      73.470  36.093  -4.161  0.00  0.00     0.209 HD
ENDBRANCH  32  33
ENDBRANCH  29  32
ENDBRANCH  26  29
ENDBRANCH  23  26
ENDBRANCH  22  23
ENDBRANCH   3  22
TORSDOF 9
ENDMDL
MODEL 5
REMARK VINA RESULT:      -5.2     12.525     15.863
REMARK  9 active torsions:
REMARK  status: ('A' for Active; 'I' for Inactive)
REMARK    1  A    between atoms: O_1  and  C_13 
REMARK    2  A    between atoms: O_2  and  C_15 
REMARK    3  A    between atoms: O_3  and  C_16 
REMARK    4  A    between atoms: O_4  and  C_22 
REMARK    5  A    between atoms: N_7  and  C_14 
REMARK    6  A    between atoms: C_13  and  C_14 
REMARK    7  A    between atoms: C_13  and  C_15 
REMARK    8  A    between atoms: C_15  and  C_16 
REMARK    9  A    between atoms: C_16  and  C_22 
ROOT
HETATM    1  O   UNK N   1      74.725  42.493  -0.497  0.00  0.00    -0.265 OA
HETATM    2  O   UNK N   1      74.955  40.119  -4.297  0.00  0.00    -0.247 OA
HETATM    3  N   UNK N   1      76.675  38.233  -0.438  0.00  0.00    -0.327 N 
HETATM    4  N   UNK N   1      75.927  40.532   0.924  0.00  0.00    -0.347 N 
ATOM      5  HN  UNK N   1      75.649  41.377   1.423  1.00  0.00     0.166 HD
HETATM    6  N   UNK N   1      75.776  39.188  -2.433  0.00  0.00    -0.292 N 
ATOM      7  HN  UNK N   1      76.041  38.346  -2.945  1.00  0.00     0.172 HD
HETATM    8  N   UNK N   1      74.806  41.356  -2.430  0.00  0.00    -0.273 N 
HETATM    9  C   UNK N   1      76.943  38.359   0.920  0.00  0.00     0.063 A 
HETATM   10  C   UNK N   1      76.037  39.263  -1.097  0.00  0.00     0.145 A 
HETATM   11  C   UNK N   1      76.546  39.538   1.599  0.00  0.00     0.060 A 
HETATM   12  C   UNK N   1      77.593  37.347   1.671  0.00  0.00     0.039 A 
HETATM   13  C   UNK N   1      75.669  40.428  -0.397  0.00  0.00     0.146 A 
HETATM   14  C   UNK N   1      77.826  37.504   3.051  0.00  0.00    -0.054 A 
HETATM   15  C   UNK N   1      76.784  39.694   2.964  0.00  0.00     0.039 A 
HETATM   16  C   UNK N   1      77.417  38.689   3.702  0.00  0.00    -0.054 A 
HETATM   17  C   UNK N   1      75.047  41.474  -1.086  0.00  0.00     0.280 A 
HETATM   18  C   UNK N   1      78.504  36.399   3.822  0.00  0.00     0.049 C 
HETATM   19  C   UNK N   1      77.648  38.893   5.178  0.00  0.00     0.049 C 
HETATM   20  C   UNK N   1      75.168  40.217  -3.103  0.00  0.00     0.328 A 
HETATM   21  H   UNK N   1      74.345  42.141  -2.945  0.00  0.00     0.173 HD
ENDROOT
BRANCH   3  22
HETATM   22  C   UNK N   1      77.079  37.023  -1.202  0.00  0.00     0.165 C 
BRANCH  22  23
HETATM   23  C   UNK N   1      75.876  36.067  -1.375  0.00  0.00     0.167 C 
BRANCH  23  24
HETATM   24  O   UNK N   1      76.228  34.793  -0.894  0.00  0.00    -0.391 OA
HETATM   25  H   UNK N   1      75.491  34.485  -0.306  0.00  0.00     0.210 HD
ENDBRANCH  23  24
BRANCH  23  26
HETATM   26  C   UNK N   1      75.432  35.941  -2.853  0.00  0.00     0.179 C 
BRANCH  26  27
HETATM   27  O   UNK N   1      74.934  34.644  -3.071  0.00  0.00    -0.390 OA
HETATM   28  H   UNK N   1      75.709  34.067  -3.304  0.00  0.00     0.210 HD
ENDBRANCH  26  27
BRANCH  26  29
HETATM   29  C   UNK N   1      76.573  36.255  -3.865  0.00  0.00     0.173 C 
BRANCH  29  30
HETATM   30  O   UNK N   1      76.059  37.088  -4.876  0.00  0.00    -0.391 OA
HETATM   31  H   UNK N   1      75.131  36.792  -5.066  0.00  0.00     0.210 HD
ENDBRANCH  29  30
BRANCH  29  32
HETATM   32  C   UNK N   1      77.184  34.984  -4.497  0.00  0.00     0.198 C 
BRANCH  32  33
HETATM   33  O   UNK N   1      77.763  34.166  -3.517  0.00  0.00    -0.398 OA
HETATM   34  H   UNK N   1      77.974  34.756  -2.744  0.00  0.00     0.209 HD
ENDBRANCH  32  33
ENDBRANCH  29  32
ENDBRANCH  26  29
ENDBRANCH  23  26
ENDBRANCH  22  23
ENDBRANCH   3  22
TORSDOF 9
ENDMDL
MODEL 6
REMARK VINA RESULT:      -5.2      2.363      2.777
REMARK  9 active torsions:
REMARK  status: ('A' for Active; 'I' for Inactive)
REMARK    1  A    between atoms: O_1  and  C_13 
REMARK    2  A    between atoms: O_2  and  C_15 
REMARK    3  A    between atoms: O_3  and  C_16 
REMARK    4  A    between atoms: O_4  and  C_22 
REMARK    5  A    between atoms: N_7  and  C_14 
REMARK    6  A    between atoms: C_13  and  C_14 
REMARK    7  A    between atoms: C_13  and  C_15 
REMARK    8  A    between atoms: C_15  and  C_16 
REMARK    9  A    between atoms: C_16  and  C_22 
ROOT
HETATM    1  O   UNK N   1      83.948  25.137   0.816  0.00  0.00    -0.265 OA
HETATM    2  O   UNK N   1      79.544  25.880   1.243  0.00  0.00    -0.247 OA
HETATM    3  N   UNK N   1      82.222  26.435   4.974  0.00  0.00    -0.327 N 
HETATM    4  N   UNK N   1      84.406  25.734   3.413  0.00  0.00    -0.347 N 
ATOM      5  HN  UNK N   1      85.207  25.477   2.836  1.00  0.00     0.166 HD
HETATM    6  N   UNK N   1      80.831  26.168   3.053  0.00  0.00    -0.292 N 
ATOM      7  HN  UNK N   1      80.020  26.430   3.613  1.00  0.00     0.172 HD
HETATM    8  N   UNK N   1      81.738  25.496   0.962  0.00  0.00    -0.273 N 
HETATM    9  C   UNK N   1      83.492  26.373   5.536  0.00  0.00     0.063 A 
HETATM   10  C   UNK N   1      82.063  26.141   3.636  0.00  0.00     0.145 A 
HETATM   11  C   UNK N   1      84.595  26.021   4.720  0.00  0.00     0.060 A 
HETATM   12  C   UNK N   1      83.741  26.662   6.902  0.00  0.00     0.039 A 
HETATM   13  C   UNK N   1      83.177  25.779   2.856  0.00  0.00     0.146 A 
HETATM   14  C   UNK N   1      85.047  26.611   7.428  0.00  0.00    -0.054 A 
HETATM   15  C   UNK N   1      85.886  25.964   5.245  0.00  0.00     0.039 A 
HETATM   16  C   UNK N   1      86.128  26.258   6.590  0.00  0.00    -0.054 A 
HETATM   17  C   UNK N   1      82.994  25.458   1.507  0.00  0.00     0.280 A 
HETATM   18  C   UNK N   1      85.277  26.941   8.881  0.00  0.00     0.049 C 
HETATM   19  C   UNK N   1      87.539  26.193   7.117  0.00  0.00     0.049 C 
HETATM   20  C   UNK N   1      80.658  25.850   1.731  0.00  0.00     0.328 A 
HETATM   21  H   UNK N   1      81.602  25.251  -0.046  0.00  0.00     0.173 HD
ENDROOT
BRANCH   3  22
HETATM   22  C   UNK N   1      81.027  26.790   5.786  0.00  0.00     0.165 C 
BRANCH  22  23
HETATM   23  C   UNK N   1      80.793  28.317   5.762  0.00  0.00     0.167 C 
BRANCH  23  24
HETATM   24  O   UNK N   1      80.715  28.791   7.084  0.00  0.00    -0.391 OA
HETATM   25  H   UNK N   1      81.385  29.517   7.178  0.00  0.00     0.210 HD
ENDBRANCH  23  24
BRANCH  23  26
HETATM   26  C   UNK N   1      79.491  28.701   5.014  0.00  0.00     0.179 C 
BRANCH  26  27
HETATM   27  O   UNK N   1      78.788  27.527   4.690  0.00  0.00    -0.390 OA
HETATM   28  H   UNK N   1      78.571  27.069   5.544  0.00  0.00     0.210 HD
ENDBRANCH  26  27
BRANCH  26  29
HETATM   29  C   UNK N   1      79.749  29.544   3.730  0.00  0.00     0.173 C 
BRANCH  29  30
HETATM   30  O   UNK N   1      80.499  30.681   4.084  0.00  0.00    -0.391 OA
HETATM   31  H   UNK N   1      80.527  30.725   5.076  0.00  0.00     0.210 HD
ENDBRANCH  29  30
BRANCH  29  32
HETATM   32  C   UNK N   1      78.445  29.978   3.024  0.00  0.00     0.198 C 
BRANCH  32  33
HETATM   33  O   UNK N   1      77.750  28.866   2.529  0.00  0.00    -0.398 OA
HETATM   34  H   UNK N   1      77.331  28.421   3.313  0.00  0.00     0.209 HD
ENDBRANCH  32  33
ENDBRANCH  29  32
ENDBRANCH  26  29
ENDBRANCH  23  26
ENDBRANCH  22  23
ENDBRANCH   3  22
TORSDOF 9
ENDMDL
MODEL 7
REMARK VINA RESULT:      -5.2      1.912      4.903
REMARK  9 active torsions:
REMARK  status: ('A' for Active; 'I' for Inactive)
REMARK    1  A    between atoms: O_1  and  C_13 
REMARK    2  A    between atoms: O_2  and  C_15 
REMARK    3  A    between atoms: O_3  and  C_16 
REMARK    4  A    between atoms: O_4  and  C_22 
REMARK    5  A    between atoms: N_7  and  C_14 
REMARK    6  A    between atoms: C_13  and  C_14 
REMARK    7  A    between atoms: C_13  and  C_15 
REMARK    8  A    between atoms: C_15  and  C_16 
REMARK    9  A    between atoms: C_16  and  C_22 
ROOT
HETATM    1  O   UNK N   1      87.612  26.298   7.482  0.00  0.00    -0.265 OA
HETATM    2  O   UNK N   1      84.910  28.987   9.848  0.00  0.00    -0.247 OA
HETATM    3  N   UNK N   1      82.968  25.917   6.982  0.00  0.00    -0.327 N 
HETATM    4  N   UNK N   1      85.519  25.064   6.296  0.00  0.00    -0.347 N 
ATOM      5  HN  UNK N   1      86.457  24.752   6.047  1.00  0.00     0.166 HD
HETATM    6  N   UNK N   1      83.957  27.494   8.477  0.00  0.00    -0.292 N 
ATOM      7  HN  UNK N   1      83.026  27.814   8.742  1.00  0.00     0.172 HD
HETATM    8  N   UNK N   1      86.316  27.669   8.697  0.00  0.00    -0.273 N 
HETATM    9  C   UNK N   1      83.139  24.909   6.040  0.00  0.00     0.063 A 
HETATM   10  C   UNK N   1      84.081  26.488   7.566  0.00  0.00     0.145 A 
HETATM   11  C   UNK N   1      84.449  24.482   5.709  0.00  0.00     0.060 A 
HETATM   12  C   UNK N   1      82.049  24.270   5.395  0.00  0.00     0.039 A 
HETATM   13  C   UNK N   1      85.369  26.052   7.204  0.00  0.00     0.146 A 
HETATM   14  C   UNK N   1      82.263  23.236   4.463  0.00  0.00    -0.054 A 
HETATM   15  C   UNK N   1      84.658  23.463   4.781  0.00  0.00     0.039 A 
HETATM   16  C   UNK N   1      83.580  22.830   4.155  0.00  0.00    -0.054 A 
HETATM   17  C   UNK N   1      86.486  26.659   7.786  0.00  0.00     0.280 A 
HETATM   18  C   UNK N   1      81.081  22.567   3.809  0.00  0.00     0.049 C 
HETATM   19  C   UNK N   1      83.849  21.727   3.163  0.00  0.00     0.049 C 
HETATM   20  C   UNK N   1      85.056  28.087   9.042  0.00  0.00     0.328 A 
HETATM   21  H   UNK N   1      87.152  28.126   9.128  0.00  0.00     0.173 HD
ENDROOT
BRANCH   3  22
HETATM   22  C   UNK N   1      81.617  26.411   7.359  0.00  0.00     0.165 C 
BRANCH  22  23
HETATM   23  C   UNK N   1      81.306  27.739   6.633  0.00  0.00     0.167 C 
BRANCH  23  24
HETATM   24  O   UNK N   1      81.130  28.756   7.589  0.00  0.00    -0.391 OA
HETATM   25  H   UNK N   1      81.243  28.343   8.484  0.00  0.00     0.210 HD
ENDBRANCH  23  24
BRANCH  23  26
HETATM   26  C   UNK N   1      80.032  27.648   5.757  0.00  0.00     0.179 C 
BRANCH  26  27
HETATM   27  O   UNK N   1      79.295  26.513   6.140  0.00  0.00    -0.390 OA
HETATM   28  H   UNK N   1      79.249  25.912   5.350  0.00  0.00     0.210 HD
ENDBRANCH  26  27
BRANCH  26  29
HETATM   29  C   UNK N   1      80.340  27.598   4.231  0.00  0.00     0.173 C 
BRANCH  29  30
HETATM   30  O   UNK N   1      81.444  28.430   3.970  0.00  0.00    -0.391 OA
HETATM   31  H   UNK N   1      81.220  28.987   3.179  0.00  0.00     0.210 HD
ENDBRANCH  29  30
BRANCH  29  32
HETATM   32  C   UNK N   1      79.140  28.034   3.361  0.00  0.00     0.198 C 
BRANCH  32  33
HETATM   33  O   UNK N   1      77.933  27.576   3.906  0.00  0.00    -0.398 OA
HETATM   34  H   UNK N   1      77.703  26.738   3.424  0.00  0.00     0.209 HD
ENDBRANCH  32  33
ENDBRANCH  29  32
ENDBRANCH  26  29
ENDBRANCH  23  26
ENDBRANCH  22  23
ENDBRANCH   3  22
TORSDOF 9
ENDMDL
MODEL 8
REMARK VINA RESULT:      -5.2     13.728     15.652
REMARK  9 active torsions:
REMARK  status: ('A' for Active; 'I' for Inactive)
REMARK    1  A    between atoms: O_1  and  C_13 
REMARK    2  A    between atoms: O_2  and  C_15 
REMARK    3  A    between atoms: O_3  and  C_16 
REMARK    4  A    between atoms: O_4  and  C_22 
REMARK    5  A    between atoms: N_7  and  C_14 
REMARK    6  A    between atoms: C_13  and  C_14 
REMARK    7  A    between atoms: C_13  and  C_15 
REMARK    8  A    between atoms: C_15  and  C_16 
REMARK    9  A    between atoms: C_16  and  C_22 
ROOT
HETATM    1  O   UNK N   1      79.021  28.406  -8.921  0.00  0.00    -0.265 OA
HETATM    2  O   UNK N   1      76.460  28.364  -5.238  0.00  0.00    -0.247 OA
HETATM    3  N   UNK N   1      77.822  32.460  -6.902  0.00  0.00    -0.327 N 
HETATM    4  N   UNK N   1      79.152  31.106  -8.927  0.00  0.00    -0.347 N 
ATOM      5  HN  UNK N   1      79.638  30.606  -9.670  1.00  0.00     0.166 HD
HETATM    6  N   UNK N   1      77.099  30.354  -6.042  0.00  0.00    -0.292 N 
ATOM      7  HN  UNK N   1      76.601  30.839  -5.296  1.00  0.00     0.172 HD
HETATM    8  N   UNK N   1      77.736  28.316  -7.084  0.00  0.00    -0.273 N 
HETATM    9  C   UNK N   1      78.545  33.166  -7.857  0.00  0.00     0.063 A 
HETATM   10  C   UNK N   1      77.778  31.083  -6.973  0.00  0.00     0.145 A 
HETATM   11  C   UNK N   1      79.211  32.456  -8.887  0.00  0.00     0.060 A 
HETATM   12  C   UNK N   1      78.640  34.581  -7.857  0.00  0.00     0.039 A 
HETATM   13  C   UNK N   1      78.463  30.407  -7.999  0.00  0.00     0.146 A 
HETATM   14  C   UNK N   1      79.363  35.260  -8.856  0.00  0.00    -0.054 A 
HETATM   15  C   UNK N   1      79.932  33.130  -9.872  0.00  0.00     0.039 A 
HETATM   16  C   UNK N   1      80.015  34.526  -9.872  0.00  0.00    -0.054 A 
HETATM   17  C   UNK N   1      78.430  29.010  -8.041  0.00  0.00     0.280 A 
HETATM   18  C   UNK N   1      79.428  36.766  -8.835  0.00  0.00     0.049 C 
HETATM   19  C   UNK N   1      80.798  35.218 -10.959  0.00  0.00     0.049 C 
HETATM   20  C   UNK N   1      77.072  28.984  -6.087  0.00  0.00     0.328 A 
HETATM   21  H   UNK N   1      77.716  27.271  -7.114  0.00  0.00     0.173 HD
ENDROOT
BRANCH   3  22
HETATM   22  C   UNK N   1      77.113  33.153  -5.793  0.00  0.00     0.165 C 
BRANCH  22  23
HETATM   23  C   UNK N   1      78.096  33.482  -4.647  0.00  0.00     0.167 C 
BRANCH  23  24
HETATM   24  O   UNK N   1      78.180  32.377  -3.781  0.00  0.00    -0.391 OA
HETATM   25  H   UNK N   1      78.414  32.723  -2.881  0.00  0.00     0.210 HD
ENDBRANCH  23  24
BRANCH  23  26
HETATM   26  C   UNK N   1      77.656  34.725  -3.832  0.00  0.00     0.179 C 
BRANCH  26  27
HETATM   27  O   UNK N   1      77.478  34.350  -2.489  0.00  0.00    -0.390 OA
HETATM   28  H   UNK N   1      77.604  33.366  -2.439  0.00  0.00     0.210 HD
ENDBRANCH  26  27
BRANCH  26  29
HETATM   29  C   UNK N   1      76.359  35.389  -4.382  0.00  0.00     0.173 C 
BRANCH  29  30
HETATM   30  O   UNK N   1      76.695  36.639  -4.933  0.00  0.00    -0.391 OA
HETATM   31  H   UNK N   1      77.406  37.037  -4.365  0.00  0.00     0.210 HD
ENDBRANCH  29  30
BRANCH  29  32
HETATM   32  C   UNK N   1      75.272  35.572  -3.299  0.00  0.00     0.198 C 
BRANCH  32  33
HETATM   33  O   UNK N   1      73.989  35.504  -3.860  0.00  0.00    -0.398 OA
HETATM   34  H   UNK N   1      74.091  35.714  -4.827  0.00  0.00     0.209 HD
ENDBRANCH  32  33
ENDBRANCH  29  32
ENDBRANCH  26  29
ENDBRANCH  23  26
ENDBRANCH  22  23
ENDBRANCH   3  22
TORSDOF 9
ENDMDL
MODEL 9
REMARK VINA RESULT:      -5.2     11.882     14.964
REMARK  9 active torsions:
REMARK  status: ('A' for Active; 'I' for Inactive)
REMARK    1  A    between atoms: O_1  and  C_13 
REMARK    2  A    between atoms: O_2  and  C_15 
REMARK    3  A    between atoms: O_3  and  C_16 
REMARK    4  A    between atoms: O_4  and  C_22 
REMARK    5  A    between atoms: N_7  and  C_14 
REMARK    6  A    between atoms: C_13  and  C_14 
REMARK    7  A    between atoms: C_13  and  C_15 
REMARK    8  A    between atoms: C_15  and  C_16 
REMARK    9  A    between atoms: C_16  and  C_22 
ROOT
HETATM    1  O   UNK N   1      75.645  42.193   9.187  0.00  0.00    -0.265 OA
HETATM    2  O   UNK N   1      76.788  40.420  13.146  0.00  0.00    -0.247 OA
HETATM    3  N   UNK N   1      78.251  38.301   9.302  0.00  0.00    -0.327 N 
HETATM    4  N   UNK N   1      76.961  40.264   7.824  0.00  0.00    -0.347 N 
ATOM      5  HN  UNK N   1      76.488  40.987   7.284  1.00  0.00     0.166 HD
HETATM    6  N   UNK N   1      77.516  39.394  11.293  0.00  0.00    -0.292 N 
ATOM      7  HN  UNK N   1      77.991  38.682  11.849  1.00  0.00     0.172 HD
HETATM    8  N   UNK N   1      76.185  41.359  11.198  0.00  0.00    -0.273 N 
HETATM    9  C   UNK N   1      78.272  38.257   7.913  0.00  0.00     0.063 A 
HETATM   10  C   UNK N   1      77.580  39.328   9.933  0.00  0.00     0.145 A 
HETATM   11  C   UNK N   1      77.614  39.273   7.177  0.00  0.00     0.060 A 
HETATM   12  C   UNK N   1      78.940  37.238   7.188  0.00  0.00     0.039 A 
HETATM   13  C   UNK N   1      76.923  40.313   9.173  0.00  0.00     0.146 A 
HETATM   14  C   UNK N   1      78.958  37.242   5.779  0.00  0.00    -0.054 A 
HETATM   15  C   UNK N   1      77.627  39.271   5.782  0.00  0.00     0.039 A 
HETATM   16  C   UNK N   1      78.295  38.269   5.072  0.00  0.00    -0.054 A 
HETATM   17  C   UNK N   1      76.224  41.332   9.829  0.00  0.00     0.280 A 
HETATM   18  C   UNK N   1      79.693  36.152   5.041  0.00  0.00     0.049 C 
HETATM   19  C   UNK N   1      78.292  38.308   3.565  0.00  0.00     0.049 C 
HETATM   20  C   UNK N   1      76.829  40.394  11.930  0.00  0.00     0.328 A 
HETATM   21  H   UNK N   1      75.658  42.119  11.687  0.00  0.00     0.173 HD
ENDROOT
BRANCH   3  22
HETATM   22  C   UNK N   1      78.916  37.255  10.125  0.00  0.00     0.165 C 
BRANCH  22  23
HETATM   23  C   UNK N   1      78.060  35.969  10.158  0.00  0.00     0.167 C 
BRANCH  23  24
HETATM   24  O   UNK N   1      76.711  36.309   9.955  0.00  0.00    -0.391 OA
HETATM   25  H   UNK N   1      76.575  36.413   8.977  0.00  0.00     0.210 HD
ENDBRANCH  23  24
BRANCH  23  26
HETATM   26  C   UNK N   1      78.190  35.210  11.502  0.00  0.00     0.179 C 
BRANCH  26  27
HETATM   27  O   UNK N   1      76.903  34.938  11.999  0.00  0.00    -0.390 OA
HETATM   28  H   UNK N   1      76.761  33.957  11.927  0.00  0.00     0.210 HD
ENDBRANCH  26  27
BRANCH  26  29
HETATM   29  C   UNK N   1      79.024  35.984  12.565  0.00  0.00     0.173 C 
BRANCH  29  30
HETATM   30  O   UNK N   1      80.098  35.171  12.971  0.00  0.00    -0.391 OA
HETATM   31  H   UNK N   1      80.895  35.443  12.445  0.00  0.00     0.210 HD
ENDBRANCH  29  30
BRANCH  29  32
HETATM   32  C   UNK N   1      78.189  36.400  13.797  0.00  0.00     0.198 C 
BRANCH  32  33
HETATM   33  O   UNK N   1      77.256  37.389  13.459  0.00  0.00    -0.398 OA
HETATM   34  H   UNK N   1      76.463  37.243  14.042  0.00  0.00     0.209 HD
ENDBRANCH  32  33
ENDBRANCH  29  32
ENDBRANCH  26  29
ENDBRANCH  23  26
ENDBRANCH  22  23
ENDBRANCH   3  22
TORSDOF 9
ENDMDL
