MODEL 1
REMARK VINA RESULT:      -5.5      0.000      0.000
REMARK  6 active torsions:
REMARK  status: ('A' for Active; 'I' for Inactive)
REMARK    1  A    between atoms: O_2  and  C_12 
REMARK    2  A    between atoms: O_3  and  C_14 
REMARK    3  A    between atoms: O_5  and  C_16 
REMARK    4  A    between atoms: O_6  and  C_20 
REMARK    5  A    between atoms: O_7  and  C_22 
REMARK    6  A    between atoms: C_10  and  C_11 
ROOT
HETATM    1  O   UNK N   1      82.130  28.428   6.732  0.00  0.00    -0.306 OA
HETATM    2  O   UNK N   1      84.932  26.237   4.977  0.00  0.00    -0.284 OA
HETATM    3  C   UNK N   1      84.154  27.168   6.938  0.00  0.00     0.084 A 
HETATM    4  C   UNK N   1      83.113  27.962   7.494  0.00  0.00     0.096 A 
HETATM    5  C   UNK N   1      82.048  28.192   5.431  0.00  0.00     0.123 A 
HETATM    6  C   UNK N   1      83.028  27.419   4.789  0.00  0.00     0.152 A 
HETATM    7  C   UNK N   1      84.088  26.904   5.543  0.00  0.00     0.223 A 
HETATM    8  C   UNK N   1      85.189  26.696   7.812  0.00  0.00     0.085 A 
HETATM    9  C   UNK N   1      83.101  28.269   8.856  0.00  0.00     0.075 A 
HETATM   10  C   UNK N   1      84.109  27.805   9.695  0.00  0.00     0.071 A 
HETATM   11  C   UNK N   1      85.144  27.026   9.172  0.00  0.00     0.074 A 
ENDROOT
BRANCH   5  12
HETATM   12  C   UNK N   1      80.915  28.756   4.690  0.00  0.00     0.004 A 
HETATM   13  C   UNK N   1      79.740  28.013   4.536  0.00  0.00     0.053 A 
HETATM   14  C   UNK N   1      78.646  28.548   3.846  0.00  0.00     0.099 A 
HETATM   15  C   UNK N   1      78.731  29.862   3.314  0.00  0.00     0.098 A 
HETATM   16  C   UNK N   1      79.920  30.588   3.462  0.00  0.00     0.040 A 
HETATM   17  C   UNK N   1      81.006  30.040   4.145  0.00  0.00     0.017 A 
BRANCH  14  18
HETATM   18  O   UNK N   1      77.541  27.782   3.708  0.00  0.00    -0.358 OA
HETATM   19  H   UNK N   1      76.785  27.810   4.306  0.00  0.00     0.218 HD
ENDBRANCH  14  18
BRANCH  15  20
HETATM   20  O   UNK N   1      77.696  30.451   2.675  0.00  0.00    -0.358 OA
HETATM   21  H   UNK N   1      77.490  30.313   1.744  0.00  0.00     0.218 HD
ENDBRANCH  15  20
ENDBRANCH   5  12
BRANCH   6  22
HETATM   22  O   UNK N   1      82.971  27.164   3.459  0.00  0.00    -0.355 OA
HETATM   23  H   UNK N   1      82.223  27.427   2.906  0.00  0.00     0.218 HD
ENDBRANCH   6  22
BRANCH   8  24
HETATM   24  O   UNK N   1      86.234  25.934   7.407  0.00  0.00    -0.360 OA
HETATM   25  H   UNK N   1      86.347  24.992   7.552  0.00  0.00     0.217 HD
ENDBRANCH   8  24
BRANCH  10  26
HETATM   26  O   UNK N   1      84.078  28.116  11.007  0.00  0.00    -0.361 OA
HETATM   27  H   UNK N   1      84.763  27.811  11.619  0.00  0.00     0.217 HD
ENDBRANCH  10  26
TORSDOF 6
ENDMDL
MODEL 2
REMARK VINA RESULT:      -5.4     10.601     12.823
REMARK  6 active torsions:
REMARK  status: ('A' for Active; 'I' for Inactive)
REMARK    1  A    between atoms: O_2  and  C_12 
REMARK    2  A    between atoms: O_3  and  C_14 
REMARK    3  A    between atoms: O_5  and  C_16 
REMARK    4  A    between atoms: O_6  and  C_20 
REMARK    5  A    between atoms: O_7  and  C_22 
REMARK    6  A    between atoms: C_10  and  C_11 
ROOT
HETATM    1  O   UNK N   1      77.051  36.785   0.899  0.00  0.00    -0.306 OA
HETATM    2  O   UNK N   1      76.349  40.689   0.884  0.00  0.00    -0.284 OA
HETATM    3  C   UNK N   1      76.965  38.841   2.119  0.00  0.00     0.084 A 
HETATM    4  C   UNK N   1      77.198  37.440   2.044  0.00  0.00     0.096 A 
HETATM    5  C   UNK N   1      76.688  37.374  -0.232  0.00  0.00     0.123 A 
HETATM    6  C   UNK N   1      76.434  38.754  -0.260  0.00  0.00     0.152 A 
HETATM    7  C   UNK N   1      76.572  39.493   0.920  0.00  0.00     0.223 A 
HETATM    8  C   UNK N   1      77.139  39.492   3.386  0.00  0.00     0.085 A 
HETATM    9  C   UNK N   1      77.587  36.721   3.177  0.00  0.00     0.075 A 
HETATM   10  C   UNK N   1      77.754  37.362   4.400  0.00  0.00     0.071 A 
HETATM   11  C   UNK N   1      77.529  38.737   4.499  0.00  0.00     0.074 A 
ENDROOT
BRANCH   5  12
HETATM   12  C   UNK N   1      76.559  36.549  -1.437  0.00  0.00     0.004 A 
HETATM   13  C   UNK N   1      75.326  36.449  -2.088  0.00  0.00     0.053 A 
HETATM   14  C   UNK N   1      75.194  35.680  -3.250  0.00  0.00     0.099 A 
HETATM   15  C   UNK N   1      76.332  35.009  -3.774  0.00  0.00     0.098 A 
HETATM   16  C   UNK N   1      77.557  35.104  -3.102  0.00  0.00     0.040 A 
HETATM   17  C   UNK N   1      77.672  35.869  -1.940  0.00  0.00     0.017 A 
BRANCH  14  18
HETATM   18  O   UNK N   1      73.976  35.600  -3.830  0.00  0.00    -0.358 OA
HETATM   19  H   UNK N   1      73.792  35.867  -4.737  0.00  0.00     0.218 HD
ENDBRANCH  14  18
BRANCH  15  20
HETATM   20  O   UNK N   1      76.281  34.285  -4.914  0.00  0.00    -0.358 OA
HETATM   21  H   UNK N   1      76.995  34.248  -5.560  0.00  0.00     0.218 HD
ENDBRANCH  15  20
ENDBRANCH   5  12
BRANCH   6  22
HETATM   22  O   UNK N   1      76.058  39.382  -1.400  0.00  0.00    -0.355 OA
HETATM   23  H   UNK N   1      76.160  40.334  -1.534  0.00  0.00     0.218 HD
ENDBRANCH   6  22
BRANCH   8  24
HETATM   24  O   UNK N   1      76.948  40.818   3.589  0.00  0.00    -0.360 OA
HETATM   25  H   UNK N   1      77.394  41.538   3.135  0.00  0.00     0.217 HD
ENDBRANCH   8  24
BRANCH  10  26
HETATM   26  O   UNK N   1      78.129  36.647   5.480  0.00  0.00    -0.361 OA
HETATM   27  H   UNK N   1      77.551  36.546   6.250  0.00  0.00     0.217 HD
ENDBRANCH  10  26
TORSDOF 6
ENDMDL
MODEL 3
REMARK VINA RESULT:      -5.3      8.839     12.798
REMARK  6 active torsions:
REMARK  status: ('A' for Active; 'I' for Inactive)
REMARK    1  A    between atoms: O_2  and  C_12 
REMARK    2  A    between atoms: O_3  and  C_14 
REMARK    3  A    between atoms: O_5  and  C_16 
REMARK    4  A    between atoms: O_6  and  C_20 
REMARK    5  A    between atoms: O_7  and  C_22 
REMARK    6  A    between atoms: C_10  and  C_11 
ROOT
HETATM    1  O   UNK N   1      78.266  28.262  -4.311  0.00  0.00    -0.306 OA
HETATM    2  O   UNK N   1      79.793  27.909  -7.955  0.00  0.00    -0.284 OA
HETATM    3  C   UNK N   1      78.442  29.125  -6.536  0.00  0.00     0.084 A 
HETATM    4  C   UNK N   1      77.934  29.183  -5.208  0.00  0.00     0.096 A 
HETATM    5  C   UNK N   1      79.076  27.247  -4.579  0.00  0.00     0.123 A 
HETATM    6  C   UNK N   1      79.627  27.103  -5.862  0.00  0.00     0.152 A 
HETATM    7  C   UNK N   1      79.310  28.044  -6.847  0.00  0.00     0.223 A 
HETATM    8  C   UNK N   1      78.045  30.148  -7.460  0.00  0.00     0.085 A 
HETATM    9  C   UNK N   1      77.074  30.211  -4.818  0.00  0.00     0.075 A 
HETATM   10  C   UNK N   1      76.697  31.199  -5.722  0.00  0.00     0.071 A 
HETATM   11  C   UNK N   1      77.180  31.163  -7.032  0.00  0.00     0.074 A 
ENDROOT
BRANCH   5  12
HETATM   12  C   UNK N   1      79.374  26.291  -3.508  0.00  0.00     0.004 A 
HETATM   13  C   UNK N   1      78.535  25.191  -3.298  0.00  0.00     0.053 A 
HETATM   14  C   UNK N   1      78.819  24.262  -2.291  0.00  0.00     0.099 A 
HETATM   15  C   UNK N   1      79.977  24.437  -1.488  0.00  0.00     0.098 A 
HETATM   16  C   UNK N   1      80.799  25.552  -1.698  0.00  0.00     0.040 A 
HETATM   17  C   UNK N   1      80.500  26.475  -2.701  0.00  0.00     0.017 A 
BRANCH  14  18
HETATM   18  O   UNK N   1      77.967  23.228  -2.116  0.00  0.00    -0.358 OA
HETATM   19  H   UNK N   1      78.233  22.355  -1.806  0.00  0.00     0.218 HD
ENDBRANCH  14  18
BRANCH  15  20
HETATM   20  O   UNK N   1      80.329  23.554  -0.527  0.00  0.00    -0.358 OA
HETATM   21  H   UNK N   1      80.055  22.630  -0.517  0.00  0.00     0.218 HD
ENDBRANCH  15  20
ENDBRANCH   5  12
BRANCH   6  22
HETATM   22  O   UNK N   1      80.455  26.074  -6.165  0.00  0.00    -0.355 OA
HETATM   23  H   UNK N   1      80.926  26.009  -7.007  0.00  0.00     0.218 HD
ENDBRANCH   6  22
BRANCH   8  24
HETATM   24  O   UNK N   1      78.457  30.206  -8.749  0.00  0.00    -0.360 OA
HETATM   25  H   UNK N   1      78.551  30.996  -9.287  0.00  0.00     0.217 HD
ENDBRANCH   8  24
BRANCH  10  26
HETATM   26  O   UNK N   1      75.864  32.182  -5.323  0.00  0.00    -0.361 OA
HETATM   27  H   UNK N   1      74.903  32.105  -5.415  0.00  0.00     0.217 HD
ENDBRANCH  10  26
TORSDOF 6
ENDMDL
MODEL 4
REMARK VINA RESULT:      -5.3      9.681     12.411
REMARK  6 active torsions:
REMARK  status: ('A' for Active; 'I' for Inactive)
REMARK    1  A    between atoms: O_2  and  C_12 
REMARK    2  A    between atoms: O_3  and  C_14 
REMARK    3  A    between atoms: O_5  and  C_16 
REMARK    4  A    between atoms: O_6  and  C_20 
REMARK    5  A    between atoms: O_7  and  C_22 
REMARK    6  A    between atoms: C_10  and  C_11 
ROOT
HETATM    1  O   UNK N   1      78.154  27.758  -4.646  0.00  0.00    -0.306 OA
HETATM    2  O   UNK N   1      78.941  24.927  -7.310  0.00  0.00    -0.284 OA
HETATM    3  C   UNK N   1      78.758  25.484  -5.080  0.00  0.00     0.084 A 
HETATM    4  C   UNK N   1      78.463  26.552  -4.187  0.00  0.00     0.096 A 
HETATM    5  C   UNK N   1      78.097  28.049  -5.938  0.00  0.00     0.123 A 
HETATM    6  C   UNK N   1      78.371  27.063  -6.898  0.00  0.00     0.152 A 
HETATM    7  C   UNK N   1      78.704  25.774  -6.470  0.00  0.00     0.223 A 
HETATM    8  C   UNK N   1      79.086  24.203  -4.522  0.00  0.00     0.085 A 
HETATM    9  C   UNK N   1      78.493  26.353  -2.805  0.00  0.00     0.075 A 
HETATM   10  C   UNK N   1      78.812  25.107  -2.275  0.00  0.00     0.071 A 
HETATM   11  C   UNK N   1      79.107  24.043  -3.131  0.00  0.00     0.074 A 
ENDROOT
BRANCH   5  12
HETATM   12  C   UNK N   1      77.742  29.417  -6.329  0.00  0.00     0.004 A 
HETATM   13  C   UNK N   1      76.938  30.198  -5.492  0.00  0.00     0.053 A 
HETATM   14  C   UNK N   1      76.607  31.511  -5.845  0.00  0.00     0.099 A 
HETATM   15  C   UNK N   1      77.107  32.053  -7.060  0.00  0.00     0.098 A 
HETATM   16  C   UNK N   1      77.897  31.255  -7.896  0.00  0.00     0.040 A 
HETATM   17  C   UNK N   1      78.213  29.944  -7.535  0.00  0.00     0.017 A 
BRANCH  14  18
HETATM   18  O   UNK N   1      75.811  32.217  -5.012  0.00  0.00    -0.358 OA
HETATM   19  H   UNK N   1      75.843  33.176  -4.917  0.00  0.00     0.218 HD
ENDBRANCH  14  18
BRANCH  15  20
HETATM   20  O   UNK N   1      76.859  33.327  -7.438  0.00  0.00    -0.358 OA
HETATM   21  H   UNK N   1      76.125  33.854  -7.104  0.00  0.00     0.218 HD
ENDBRANCH  15  20
ENDBRANCH   5  12
BRANCH   6  22
HETATM   22  O   UNK N   1      78.323  27.333  -8.225  0.00  0.00    -0.355 OA
HETATM   23  H   UNK N   1      78.475  28.217  -8.587  0.00  0.00     0.218 HD
ENDBRANCH   6  22
BRANCH   8  24
HETATM   24  O   UNK N   1      79.386  23.109  -5.263  0.00  0.00    -0.360 OA
HETATM   25  H   UNK N   1      78.805  22.656  -5.879  0.00  0.00     0.217 HD
ENDBRANCH   8  24
BRANCH  10  26
HETATM   26  O   UNK N   1      78.836  24.940  -0.937  0.00  0.00    -0.361 OA
HETATM   27  H   UNK N   1      79.611  24.578  -0.483  0.00  0.00     0.217 HD
ENDBRANCH  10  26
TORSDOF 6
ENDMDL
MODEL 5
REMARK VINA RESULT:      -5.2      9.385     13.768
REMARK  6 active torsions:
REMARK  status: ('A' for Active; 'I' for Inactive)
REMARK    1  A    between atoms: O_2  and  C_12 
REMARK    2  A    between atoms: O_3  and  C_14 
REMARK    3  A    between atoms: O_5  and  C_16 
REMARK    4  A    between atoms: O_6  and  C_20 
REMARK    5  A    between atoms: O_7  and  C_22 
REMARK    6  A    between atoms: C_10  and  C_11 
ROOT
HETATM    1  O   UNK N   1      76.683  38.159   0.285  0.00  0.00    -0.306 OA
HETATM    2  O   UNK N   1      75.772  35.135  -2.115  0.00  0.00    -0.284 OA
HETATM    3  C   UNK N   1      75.590  37.396  -1.703  0.00  0.00     0.084 A 
HETATM    4  C   UNK N   1      75.956  38.428  -0.794  0.00  0.00     0.096 A 
HETATM    5  C   UNK N   1      77.111  36.941   0.586  0.00  0.00     0.123 A 
HETATM    6  C   UNK N   1      76.801  35.856  -0.249  0.00  0.00     0.152 A 
HETATM    7  C   UNK N   1      76.036  36.082  -1.399  0.00  0.00     0.223 A 
HETATM    8  C   UNK N   1      74.803  37.749  -2.849  0.00  0.00     0.085 A 
HETATM    9  C   UNK N   1      75.559  39.748  -1.017  0.00  0.00     0.075 A 
HETATM   10  C   UNK N   1      74.796  40.079  -2.132  0.00  0.00     0.071 A 
HETATM   11  C   UNK N   1      74.422  39.084  -3.038  0.00  0.00     0.074 A 
ENDROOT
BRANCH   5  12
HETATM   12  C   UNK N   1      77.909  36.764   1.803  0.00  0.00     0.004 A 
HETATM   13  C   UNK N   1      79.269  36.453   1.709  0.00  0.00     0.053 A 
HETATM   14  C   UNK N   1      80.045  36.298   2.863  0.00  0.00     0.099 A 
HETATM   15  C   UNK N   1      79.443  36.475   4.137  0.00  0.00     0.098 A 
HETATM   16  C   UNK N   1      78.076  36.770   4.217  0.00  0.00     0.040 A 
HETATM   17  C   UNK N   1      77.312  36.914   3.058  0.00  0.00     0.017 A 
BRANCH  14  18
HETATM   18  O   UNK N   1      81.350  35.978   2.718  0.00  0.00    -0.358 OA
HETATM   19  H   UNK N   1      82.024  36.140   3.388  0.00  0.00     0.218 HD
ENDBRANCH  14  18
BRANCH  15  20
HETATM   20  O   UNK N   1      80.145  36.381   5.287  0.00  0.00    -0.358 OA
HETATM   21  H   UNK N   1      80.536  35.563   5.615  0.00  0.00     0.218 HD
ENDBRANCH  15  20
ENDBRANCH   5  12
BRANCH   6  22
HETATM   22  O   UNK N   1      77.222  34.601   0.035  0.00  0.00    -0.355 OA
HETATM   23  H   UNK N   1      76.872  33.816  -0.407  0.00  0.00     0.218 HD
ENDBRANCH   6  22
BRANCH   8  24
HETATM   24  O   UNK N   1      74.389  36.862  -3.786  0.00  0.00    -0.360 OA
HETATM   25  H   UNK N   1      74.411  35.905  -3.719  0.00  0.00     0.217 HD
ENDBRANCH   8  24
BRANCH  10  26
HETATM   26  O   UNK N   1      74.423  41.360  -2.325  0.00  0.00    -0.361 OA
HETATM   27  H   UNK N   1      73.545  41.590  -2.660  0.00  0.00     0.217 HD
ENDBRANCH  10  26
TORSDOF 6
ENDMDL
MODEL 6
REMARK VINA RESULT:      -5.2     12.457     15.470
REMARK  6 active torsions:
REMARK  status: ('A' for Active; 'I' for Inactive)
REMARK    1  A    between atoms: O_2  and  C_12 
REMARK    2  A    between atoms: O_3  and  C_14 
REMARK    3  A    between atoms: O_5  and  C_16 
REMARK    4  A    between atoms: O_6  and  C_20 
REMARK    5  A    between atoms: O_7  and  C_22 
REMARK    6  A    between atoms: C_10  and  C_11 
ROOT
HETATM    1  O   UNK N   1      78.037  28.265  -8.428  0.00  0.00    -0.306 OA
HETATM    2  O   UNK N   1      78.845  25.516  -5.685  0.00  0.00    -0.284 OA
HETATM    3  C   UNK N   1      77.997  27.615  -6.125  0.00  0.00     0.084 A 
HETATM    4  C   UNK N   1      77.738  28.550  -7.166  0.00  0.00     0.096 A 
HETATM    5  C   UNK N   1      78.584  27.117  -8.802  0.00  0.00     0.123 A 
HETATM    6  C   UNK N   1      78.878  26.130  -7.848  0.00  0.00     0.152 A 
HETATM    7  C   UNK N   1      78.585  26.378  -6.503  0.00  0.00     0.223 A 
HETATM    8  C   UNK N   1      77.653  27.981  -4.782  0.00  0.00     0.085 A 
HETATM    9  C   UNK N   1      77.162  29.790  -6.882  0.00  0.00     0.075 A 
HETATM   10  C   UNK N   1      76.832  30.135  -5.576  0.00  0.00     0.071 A 
HETATM   11  C   UNK N   1      77.079  29.235  -4.537  0.00  0.00     0.074 A 
ENDROOT
BRANCH   5  12
HETATM   12  C   UNK N   1      78.868  26.911 -10.226  0.00  0.00     0.004 A 
HETATM   13  C   UNK N   1      78.014  26.123 -11.004  0.00  0.00     0.053 A 
HETATM   14  C   UNK N   1      78.265  25.933 -12.367  0.00  0.00     0.099 A 
HETATM   15  C   UNK N   1      79.391  26.563 -12.963  0.00  0.00     0.098 A 
HETATM   16  C   UNK N   1      80.247  27.336 -12.168  0.00  0.00     0.040 A 
HETATM   17  C   UNK N   1      79.989  27.510 -10.808  0.00  0.00     0.017 A 
BRANCH  14  18
HETATM   18  O   UNK N   1      77.421  25.147 -13.070  0.00  0.00    -0.358 OA
HETATM   19  H   UNK N   1      76.589  25.451 -13.450  0.00  0.00     0.218 HD
ENDBRANCH  14  18
BRANCH  15  20
HETATM   20  O   UNK N   1      79.665  26.454 -14.281  0.00  0.00    -0.358 OA
HETATM   21  H   UNK N   1      80.010  27.175 -14.821  0.00  0.00     0.218 HD
ENDBRANCH  15  20
ENDBRANCH   5  12
BRANCH   6  22
HETATM   22  O   UNK N   1      79.439  24.948  -8.202  0.00  0.00    -0.355 OA
HETATM   23  H   UNK N   1      79.541  24.670  -9.123  0.00  0.00     0.218 HD
ENDBRANCH   6  22
BRANCH   8  24
HETATM   24  O   UNK N   1      77.850  27.183  -3.705  0.00  0.00    -0.360 OA
HETATM   25  H   UNK N   1      77.172  26.810  -3.136  0.00  0.00     0.217 HD
ENDBRANCH   8  24
BRANCH  10  26
HETATM   26  O   UNK N   1      76.278  31.339  -5.326  0.00  0.00    -0.361 OA
HETATM   27  H   UNK N   1      76.117  31.982  -6.032  0.00  0.00     0.217 HD
ENDBRANCH  10  26
TORSDOF 6
ENDMDL
MODEL 7
REMARK VINA RESULT:      -5.2      3.615      5.203
REMARK  6 active torsions:
REMARK  status: ('A' for Active; 'I' for Inactive)
REMARK    1  A    between atoms: O_2  and  C_12 
REMARK    2  A    between atoms: O_3  and  C_14 
REMARK    3  A    between atoms: O_5  and  C_16 
REMARK    4  A    between atoms: O_6  and  C_20 
REMARK    5  A    between atoms: O_7  and  C_22 
REMARK    6  A    between atoms: C_10  and  C_11 
ROOT
HETATM    1  O   UNK N   1      82.397  25.046   6.696  0.00  0.00    -0.306 OA
HETATM    2  O   UNK N   1      84.207  28.191   5.092  0.00  0.00    -0.284 OA
HETATM    3  C   UNK N   1      83.150  27.305   6.941  0.00  0.00     0.084 A 
HETATM    4  C   UNK N   1      82.512  26.137   7.445  0.00  0.00     0.096 A 
HETATM    5  C   UNK N   1      82.856  24.967   5.455  0.00  0.00     0.123 A 
HETATM    6  C   UNK N   1      83.500  26.067   4.868  0.00  0.00     0.152 A 
HETATM    7  C   UNK N   1      83.648  27.243   5.612  0.00  0.00     0.223 A 
HETATM    8  C   UNK N   1      83.242  28.452   7.797  0.00  0.00     0.085 A 
HETATM    9  C   UNK N   1      81.994  26.112   8.741  0.00  0.00     0.075 A 
HETATM   10  C   UNK N   1      82.090  27.229   9.564  0.00  0.00     0.071 A 
HETATM   11  C   UNK N   1      82.709  28.389   9.091  0.00  0.00     0.074 A 
ENDROOT
BRANCH   5  12
HETATM   12  C   UNK N   1      82.674  23.710   4.724  0.00  0.00     0.004 A 
HETATM   13  C   UNK N   1      81.510  23.497   3.978  0.00  0.00     0.053 A 
HETATM   14  C   UNK N   1      81.331  22.308   3.261  0.00  0.00     0.099 A 
HETATM   15  C   UNK N   1      82.352  21.320   3.284  0.00  0.00     0.098 A 
HETATM   16  C   UNK N   1      83.504  21.540   4.049  0.00  0.00     0.040 A 
HETATM   17  C   UNK N   1      83.666  22.726   4.765  0.00  0.00     0.017 A 
BRANCH  14  18
HETATM   18  O   UNK N   1      80.180  22.143   2.572  0.00  0.00    -0.358 OA
HETATM   19  H   UNK N   1      79.315  22.422   2.892  0.00  0.00     0.218 HD
ENDBRANCH  14  18
BRANCH  15  20
HETATM   20  O   UNK N   1      82.259  20.170   2.581  0.00  0.00    -0.358 OA
HETATM   21  H   UNK N   1      82.056  20.129   1.640  0.00  0.00     0.218 HD
ENDBRANCH  15  20
ENDBRANCH   5  12
BRANCH   6  22
HETATM   22  O   UNK N   1      83.977  26.015   3.601  0.00  0.00    -0.355 OA
HETATM   23  H   UNK N   1      84.890  26.238   3.374  0.00  0.00     0.218 HD
ENDBRANCH   6  22
BRANCH   8  24
HETATM   24  O   UNK N   1      83.823  29.622   7.437  0.00  0.00    -0.360 OA
HETATM   25  H   UNK N   1      84.079  29.886   6.550  0.00  0.00     0.217 HD
ENDBRANCH   8  24
BRANCH  10  26
HETATM   26  O   UNK N   1      81.580  27.182  10.811  0.00  0.00    -0.361 OA
HETATM   27  H   UNK N   1      80.956  26.493  11.081  0.00  0.00     0.217 HD
ENDBRANCH  10  26
TORSDOF 6
ENDMDL
MODEL 8
REMARK VINA RESULT:      -5.1     12.995     15.638
REMARK  6 active torsions:
REMARK  status: ('A' for Active; 'I' for Inactive)
REMARK    1  A    between atoms: O_2  and  C_12 
REMARK    2  A    between atoms: O_3  and  C_14 
REMARK    3  A    between atoms: O_5  and  C_16 
REMARK    4  A    between atoms: O_6  and  C_20 
REMARK    5  A    between atoms: O_7  and  C_22 
REMARK    6  A    between atoms: C_10  and  C_11 
ROOT
HETATM    1  O   UNK N   1      78.356  29.207  -8.602  0.00  0.00    -0.306 OA
HETATM    2  O   UNK N   1      77.165  27.825  -5.080  0.00  0.00    -0.284 OA
HETATM    3  C   UNK N   1      77.441  29.667  -6.439  0.00  0.00     0.084 A 
HETATM    4  C   UNK N   1      77.888  30.086  -7.724  0.00  0.00     0.096 A 
HETATM    5  C   UNK N   1      78.437  27.907  -8.354  0.00  0.00     0.123 A 
HETATM    6  C   UNK N   1      78.021  27.396  -7.115  0.00  0.00     0.152 A 
HETATM    7  C   UNK N   1      77.521  28.278  -6.151  0.00  0.00     0.223 A 
HETATM    8  C   UNK N   1      76.948  30.664  -5.533  0.00  0.00     0.085 A 
HETATM    9  C   UNK N   1      77.844  31.433  -8.089  0.00  0.00     0.075 A 
HETATM   10  C   UNK N   1      77.363  32.391  -7.203  0.00  0.00     0.071 A 
HETATM   11  C   UNK N   1      76.920  32.005  -5.935  0.00  0.00     0.074 A 
ENDROOT
BRANCH   5  12
HETATM   12  C   UNK N   1      78.969  27.030  -9.402  0.00  0.00     0.004 A 
HETATM   13  C   UNK N   1      78.119  26.528 -10.392  0.00  0.00     0.053 A 
HETATM   14  C   UNK N   1      78.617  25.704 -11.408  0.00  0.00     0.099 A 
HETATM   15  C   UNK N   1      80.003  25.391 -11.434  0.00  0.00     0.098 A 
HETATM   16  C   UNK N   1      80.839  25.887 -10.426  0.00  0.00     0.040 A 
HETATM   17  C   UNK N   1      80.328  26.701  -9.415  0.00  0.00     0.017 A 
BRANCH  14  18
HETATM   18  O   UNK N   1      77.751  25.229 -12.330  0.00  0.00    -0.358 OA
HETATM   19  H   UNK N   1      77.937  24.485 -12.913  0.00  0.00     0.218 HD
ENDBRANCH  14  18
BRANCH  15  20
HETATM   20  O   UNK N   1      80.554  24.636 -12.410  0.00  0.00    -0.358 OA
HETATM   21  H   UNK N   1      80.910  23.752 -12.270  0.00  0.00     0.218 HD
ENDBRANCH  15  20
ENDBRANCH   5  12
BRANCH   6  22
HETATM   22  O   UNK N   1      78.096  26.073  -6.833  0.00  0.00    -0.355 OA
HETATM   23  H   UNK N   1      78.804  25.504  -7.165  0.00  0.00     0.218 HD
ENDBRANCH   6  22
BRANCH   8  24
HETATM   24  O   UNK N   1      76.495  30.396  -4.285  0.00  0.00    -0.360 OA
HETATM   25  H   UNK N   1      77.027  30.281  -3.494  0.00  0.00     0.217 HD
ENDBRANCH   8  24
BRANCH  10  26
HETATM   26  O   UNK N   1      77.331  33.686  -7.577  0.00  0.00    -0.361 OA
HETATM   27  H   UNK N   1      76.532  34.092  -7.943  0.00  0.00     0.217 HD
ENDBRANCH  10  26
TORSDOF 6
ENDMDL
MODEL 9
REMARK VINA RESULT:      -5.1     10.265     13.243
REMARK  6 active torsions:
REMARK  status: ('A' for Active; 'I' for Inactive)
REMARK    1  A    between atoms: O_2  and  C_12 
REMARK    2  A    between atoms: O_3  and  C_14 
REMARK    3  A    between atoms: O_5  and  C_16 
REMARK    4  A    between atoms: O_6  and  C_20 
REMARK    5  A    between atoms: O_7  and  C_22 
REMARK    6  A    between atoms: C_10  and  C_11 
ROOT
HETATM    1  O   UNK N   1      76.187  37.645   0.265  0.00  0.00    -0.306 OA
HETATM    2  O   UNK N   1      78.190  34.535  -1.166  0.00  0.00    -0.284 OA
HETATM    3  C   UNK N   1      76.573  36.134  -1.550  0.00  0.00     0.084 A 
HETATM    4  C   UNK N   1      75.897  37.242  -0.966  0.00  0.00     0.096 A 
HETATM    5  C   UNK N   1      77.105  37.062   1.022  0.00  0.00     0.123 A 
HETATM    6  C   UNK N   1      77.826  35.960   0.536  0.00  0.00     0.152 A 
HETATM    7  C   UNK N   1      77.560  35.491  -0.755  0.00  0.00     0.223 A 
HETATM    8  C   UNK N   1      76.214  35.745  -2.883  0.00  0.00     0.085 A 
HETATM    9  C   UNK N   1      74.912  37.930  -1.677  0.00  0.00     0.075 A 
HETATM   10  C   UNK N   1      74.572  37.545  -2.970  0.00  0.00     0.071 A 
HETATM   11  C   UNK N   1      75.220  36.459  -3.564  0.00  0.00     0.074 A 
ENDROOT
BRANCH   5  12
HETATM   12  C   UNK N   1      77.342  37.596   2.367  0.00  0.00     0.004 A 
HETATM   13  C   UNK N   1      77.661  36.729   3.418  0.00  0.00     0.053 A 
HETATM   14  C   UNK N   1      77.906  37.228   4.702  0.00  0.00     0.099 A 
HETATM   15  C   UNK N   1      77.844  38.629   4.929  0.00  0.00     0.098 A 
HETATM   16  C   UNK N   1      77.508  39.483   3.871  0.00  0.00     0.040 A 
HETATM   17  C   UNK N   1      77.257  38.972   2.597  0.00  0.00     0.017 A 
BRANCH  14  18
HETATM   18  O   UNK N   1      78.191  36.348   5.687  0.00  0.00    -0.358 OA
HETATM   19  H   UNK N   1      78.544  35.464   5.535  0.00  0.00     0.218 HD
ENDBRANCH  14  18
BRANCH  15  20
HETATM   20  O   UNK N   1      78.111  39.178   6.135  0.00  0.00    -0.358 OA
HETATM   21  H   UNK N   1      77.444  39.575   6.706  0.00  0.00     0.218 HD
ENDBRANCH  15  20
ENDBRANCH   5  12
BRANCH   6  22
HETATM   22  O   UNK N   1      78.769  35.342   1.288  0.00  0.00    -0.355 OA
HETATM   23  H   UNK N   1      79.409  35.825   1.829  0.00  0.00     0.218 HD
ENDBRANCH   6  22
BRANCH   8  24
HETATM   24  O   UNK N   1      76.781  34.709  -3.548  0.00  0.00    -0.360 OA
HETATM   25  H   UNK N   1      77.500  34.153  -3.239  0.00  0.00     0.217 HD
ENDBRANCH   8  24
BRANCH  10  26
HETATM   26  O   UNK N   1      73.617  38.224  -3.637  0.00  0.00    -0.361 OA
HETATM   27  H   UNK N   1      73.803  39.067  -4.074  0.00  0.00     0.217 HD
ENDBRANCH  10  26
TORSDOF 6
ENDMDL
