MODEL 1
REMARK VINA RESULT:      -5.7      0.000      0.000
REMARK  4 active torsions:
REMARK  status: ('A' for Active; 'I' for Inactive)
REMARK    1  A    between atoms: O_2  and  C_12 
REMARK    2  A    between atoms: O_4  and  C_14 
REMARK    3  A    between atoms: O_5  and  C_20 
REMARK    4  A    between atoms: C_8  and  C_9 
ROOT
HETATM    1  O   UNK N   1      76.089  37.730   0.292  0.00  0.00    -0.309 OA
HETATM    2  O   UNK N   1      77.847  34.431  -1.026  0.00  0.00    -0.287 OA
HETATM    3  C   UNK N   1      76.374  36.146  -1.482  0.00  0.00     0.081 A 
HETATM    4  C   UNK N   1      75.789  37.323  -0.939  0.00  0.00     0.095 A 
HETATM    5  C   UNK N   1      76.967  37.105   1.070  0.00  0.00     0.090 A 
HETATM    6  C   UNK N   1      77.297  35.449  -0.660  0.00  0.00     0.190 A 
HETATM    7  C   UNK N   1      77.598  35.944   0.607  0.00  0.00     0.094 A 
HETATM    8  C   UNK N   1      76.005  35.749  -2.810  0.00  0.00     0.085 A 
HETATM    9  C   UNK N   1      74.894  38.084  -1.694  0.00  0.00     0.075 A 
HETATM   10  C   UNK N   1      74.554  37.700  -2.988  0.00  0.00     0.071 A 
HETATM   11  C   UNK N   1      75.104  36.539  -3.535  0.00  0.00     0.074 A 
ENDROOT
BRANCH   5  12
HETATM   12  C   UNK N   1      77.260  37.660   2.417  0.00  0.00    -0.002 A 
HETATM   13  C   UNK N   1      77.077  39.029   2.702  0.00  0.00     0.017 A 
HETATM   14  C   UNK N   1      77.339  39.526   3.980  0.00  0.00     0.037 A 
HETATM   15  C   UNK N   1      77.806  38.672   4.986  0.00  0.00     0.065 A 
HETATM   16  C   UNK N   1      77.998  37.315   4.711  0.00  0.00     0.037 A 
HETATM   17  C   UNK N   1      77.714  36.808   3.439  0.00  0.00     0.017 A 
BRANCH  15  18
HETATM   18  O   UNK N   1      78.068  39.146   6.221  0.00  0.00    -0.361 OA
HETATM   19  H   UNK N   1      78.820  38.824   6.739  0.00  0.00     0.217 HD
ENDBRANCH  15  18
ENDBRANCH   5  12
BRANCH   8  20
HETATM   20  O   UNK N   1      76.480  34.643  -3.430  0.00  0.00    -0.360 OA
HETATM   21  H   UNK N   1      77.046  34.618  -4.206  0.00  0.00     0.217 HD
ENDBRANCH   8  20
BRANCH  10  22
HETATM   22  O   UNK N   1      73.697  38.457  -3.704  0.00  0.00    -0.361 OA
HETATM   23  H   UNK N   1      73.973  39.287  -4.116  0.00  0.00     0.217 HD
ENDBRANCH  10  22
TORSDOF 4
ENDMDL
MODEL 2
REMARK VINA RESULT:      -5.7      1.662      3.343
REMARK  4 active torsions:
REMARK  status: ('A' for Active; 'I' for Inactive)
REMARK    1  A    between atoms: O_2  and  C_12 
REMARK    2  A    between atoms: O_4  and  C_14 
REMARK    3  A    between atoms: O_5  and  C_20 
REMARK    4  A    between atoms: C_8  and  C_9 
ROOT
HETATM    1  O   UNK N   1      77.234  36.793   2.035  0.00  0.00    -0.309 OA
HETATM    2  O   UNK N   1      76.315  40.468   0.867  0.00  0.00    -0.287 OA
HETATM    3  C   UNK N   1      76.461  38.239   0.289  0.00  0.00     0.081 A 
HETATM    4  C   UNK N   1      76.805  36.952   0.785  0.00  0.00     0.095 A 
HETATM    5  C   UNK N   1      77.330  37.795   2.903  0.00  0.00     0.090 A 
HETATM    6  C   UNK N   1      76.578  39.328   1.192  0.00  0.00     0.190 A 
HETATM    7  C   UNK N   1      76.998  39.094   2.499  0.00  0.00     0.094 A 
HETATM    8  C   UNK N   1      76.015  38.353  -1.070  0.00  0.00     0.085 A 
HETATM    9  C   UNK N   1      76.689  35.823  -0.029  0.00  0.00     0.075 A 
HETATM   10  C   UNK N   1      76.240  35.940  -1.342  0.00  0.00     0.071 A 
HETATM   11  C   UNK N   1      75.912  37.197  -1.854  0.00  0.00     0.074 A 
ENDROOT
BRANCH   5  12
HETATM   12  C   UNK N   1      77.786  37.507   4.289  0.00  0.00    -0.002 A 
HETATM   13  C   UNK N   1      77.965  38.540   5.230  0.00  0.00     0.017 A 
HETATM   14  C   UNK N   1      78.375  38.247   6.532  0.00  0.00     0.037 A 
HETATM   15  C   UNK N   1      78.632  36.922   6.908  0.00  0.00     0.065 A 
HETATM   16  C   UNK N   1      78.464  35.892   5.978  0.00  0.00     0.037 A 
HETATM   17  C   UNK N   1      78.030  36.180   4.680  0.00  0.00     0.017 A 
BRANCH  15  18
HETATM   18  O   UNK N   1      79.035  36.631   8.161  0.00  0.00    -0.361 OA
HETATM   19  H   UNK N   1      79.282  37.325   8.789  0.00  0.00     0.217 HD
ENDBRANCH  15  18
ENDBRANCH   5  12
BRANCH   8  20
HETATM   20  O   UNK N   1      75.675  39.522  -1.660  0.00  0.00    -0.360 OA
HETATM   21  H   UNK N   1      76.276  40.193  -1.995  0.00  0.00     0.217 HD
ENDBRANCH   8  20
BRANCH  10  22
HETATM   22  O   UNK N   1      76.124  34.836  -2.107  0.00  0.00    -0.361 OA
HETATM   23  H   UNK N   1      76.368  34.837  -3.043  0.00  0.00     0.217 HD
ENDBRANCH  10  22
TORSDOF 4
ENDMDL
MODEL 3
REMARK VINA RESULT:      -5.6      8.601     11.556
REMARK  4 active torsions:
REMARK  status: ('A' for Active; 'I' for Inactive)
REMARK    1  A    between atoms: O_2  and  C_12 
REMARK    2  A    between atoms: O_4  and  C_14 
REMARK    3  A    between atoms: O_5  and  C_20 
REMARK    4  A    between atoms: C_8  and  C_9 
ROOT
HETATM    1  O   UNK N   1      77.673  28.560  -4.835  0.00  0.00    -0.309 OA
HETATM    2  O   UNK N   1      78.809  28.438  -8.631  0.00  0.00    -0.287 OA
HETATM    3  C   UNK N   1      77.834  29.678  -6.947  0.00  0.00     0.081 A 
HETATM    4  C   UNK N   1      77.460  29.645  -5.576  0.00  0.00     0.095 A 
HETATM    5  C   UNK N   1      78.275  27.470  -5.299  0.00  0.00     0.090 A 
HETATM    6  C   UNK N   1      78.456  28.515  -7.472  0.00  0.00     0.190 A 
HETATM    7  C   UNK N   1      78.686  27.424  -6.637  0.00  0.00     0.094 A 
HETATM    8  C   UNK N   1      77.569  30.870  -7.701  0.00  0.00     0.085 A 
HETATM    9  C   UNK N   1      76.869  30.759  -4.974  0.00  0.00     0.075 A 
HETATM   10  C   UNK N   1      76.631  31.917  -5.709  0.00  0.00     0.071 A 
HETATM   11  C   UNK N   1      76.975  31.965  -7.062  0.00  0.00     0.074 A 
ENDROOT
BRANCH   5  12
HETATM   12  C   UNK N   1      78.499  26.323  -4.380  0.00  0.00    -0.002 A 
HETATM   13  C   UNK N   1      79.087  25.125  -4.833  0.00  0.00     0.017 A 
HETATM   14  C   UNK N   1      79.307  24.067  -3.949  0.00  0.00     0.037 A 
HETATM   15  C   UNK N   1      78.925  24.181  -2.606  0.00  0.00     0.065 A 
HETATM   16  C   UNK N   1      78.333  25.362  -2.151  0.00  0.00     0.037 A 
HETATM   17  C   UNK N   1      78.134  26.434  -3.027  0.00  0.00     0.017 A 
BRANCH  15  18
HETATM   18  O   UNK N   1      79.127  23.161  -1.747  0.00  0.00    -0.361 OA
HETATM   19  H   UNK N   1      79.017  22.239  -2.020  0.00  0.00     0.217 HD
ENDBRANCH  15  18
ENDBRANCH   5  12
BRANCH   8  20
HETATM   20  O   UNK N   1      77.863  31.017  -9.014  0.00  0.00    -0.360 OA
HETATM   21  H   UNK N   1      77.275  31.339  -9.701  0.00  0.00     0.217 HD
ENDBRANCH   8  20
BRANCH  10  22
HETATM   22  O   UNK N   1      76.070  32.985  -5.105  0.00  0.00    -0.361 OA
HETATM   23  H   UNK N   1      75.422  32.885  -4.394  0.00  0.00     0.217 HD
ENDBRANCH  10  22
TORSDOF 4
ENDMDL
MODEL 4
REMARK VINA RESULT:      -5.4      1.233      2.682
REMARK  4 active torsions:
REMARK  status: ('A' for Active; 'I' for Inactive)
REMARK    1  A    between atoms: O_2  and  C_12 
REMARK    2  A    between atoms: O_4  and  C_14 
REMARK    3  A    between atoms: O_5  and  C_20 
REMARK    4  A    between atoms: C_8  and  C_9 
ROOT
HETATM    1  O   UNK N   1      76.559  36.975   0.128  0.00  0.00    -0.309 OA
HETATM    2  O   UNK N   1      75.491  40.390  -1.578  0.00  0.00    -0.287 OA
HETATM    3  C   UNK N   1      75.726  38.107  -1.811  0.00  0.00     0.081 A 
HETATM    4  C   UNK N   1      76.122  36.925  -1.128  0.00  0.00     0.095 A 
HETATM    5  C   UNK N   1      76.615  38.101   0.833  0.00  0.00     0.090 A 
HETATM    6  C   UNK N   1      75.801  39.325  -1.086  0.00  0.00     0.190 A 
HETATM    7  C   UNK N   1      76.232  39.309   0.239  0.00  0.00     0.094 A 
HETATM    8  C   UNK N   1      75.274  37.994  -3.168  0.00  0.00     0.085 A 
HETATM    9  C   UNK N   1      76.050  35.681  -1.760  0.00  0.00     0.075 A 
HETATM   10  C   UNK N   1      75.595  35.580  -3.072  0.00  0.00     0.071 A 
HETATM   11  C   UNK N   1      75.216  36.730  -3.767  0.00  0.00     0.074 A 
ENDROOT
BRANCH   5  12
HETATM   12  C   UNK N   1      77.085  38.046   2.243  0.00  0.00    -0.002 A 
HETATM   13  C   UNK N   1      77.153  39.207   3.039  0.00  0.00     0.017 A 
HETATM   14  C   UNK N   1      77.577  39.130   4.366  0.00  0.00     0.037 A 
HETATM   15  C   UNK N   1      77.960  37.899   4.914  0.00  0.00     0.065 A 
HETATM   16  C   UNK N   1      77.904  36.744   4.129  0.00  0.00     0.037 A 
HETATM   17  C   UNK N   1      77.455  36.812   2.806  0.00  0.00     0.017 A 
BRANCH  15  18
HETATM   18  O   UNK N   1      78.378  37.818   6.193  0.00  0.00    -0.361 OA
HETATM   19  H   UNK N   1      77.851  38.173   6.922  0.00  0.00     0.217 HD
ENDBRANCH  15  18
ENDBRANCH   5  12
BRANCH   8  20
HETATM   20  O   UNK N   1      74.886  39.046  -3.927  0.00  0.00    -0.360 OA
HETATM   21  H   UNK N   1      74.589  39.016  -4.841  0.00  0.00     0.217 HD
ENDBRANCH   8  20
BRANCH  10  22
HETATM   22  O   UNK N   1      75.522  34.367  -3.659  0.00  0.00    -0.361 OA
HETATM   23  H   UNK N   1      75.919  33.582  -3.256  0.00  0.00     0.217 HD
ENDBRANCH  10  22
TORSDOF 4
ENDMDL
MODEL 5
REMARK VINA RESULT:      -5.4      1.563      7.220
REMARK  4 active torsions:
REMARK  status: ('A' for Active; 'I' for Inactive)
REMARK    1  A    between atoms: O_2  and  C_12 
REMARK    2  A    between atoms: O_4  and  C_14 
REMARK    3  A    between atoms: O_5  and  C_20 
REMARK    4  A    between atoms: C_8  and  C_9 
ROOT
HETATM    1  O   UNK N   1      77.031  36.903   2.070  0.00  0.00    -0.309 OA
HETATM    2  O   UNK N   1      76.908  40.827   2.621  0.00  0.00    -0.287 OA
HETATM    3  C   UNK N   1      77.387  38.764   3.536  0.00  0.00     0.081 A 
HETATM    4  C   UNK N   1      77.408  37.370   3.258  0.00  0.00     0.095 A 
HETATM    5  C   UNK N   1      76.657  37.690   1.066  0.00  0.00     0.090 A 
HETATM    6  C   UNK N   1      76.967  39.622   2.486  0.00  0.00     0.190 A 
HETATM    7  C   UNK N   1      76.619  39.077   1.252  0.00  0.00     0.094 A 
HETATM    8  C   UNK N   1      77.793  39.209   4.837  0.00  0.00     0.085 A 
HETATM    9  C   UNK N   1      77.837  36.459   4.227  0.00  0.00     0.075 A 
HETATM   10  C   UNK N   1      78.245  36.901   5.482  0.00  0.00     0.071 A 
HETATM   11  C   UNK N   1      78.216  38.265   5.782  0.00  0.00     0.074 A 
ENDROOT
BRANCH   5  12
HETATM   12  C   UNK N   1      76.288  37.073  -0.235  0.00  0.00    -0.002 A 
HETATM   13  C   UNK N   1      75.546  37.784  -1.200  0.00  0.00     0.017 A 
HETATM   14  C   UNK N   1      75.228  37.192  -2.424  0.00  0.00     0.037 A 
HETATM   15  C   UNK N   1      75.626  35.877  -2.695  0.00  0.00     0.065 A 
HETATM   16  C   UNK N   1      76.355  35.162  -1.741  0.00  0.00     0.037 A 
HETATM   17  C   UNK N   1      76.697  35.760  -0.524  0.00  0.00     0.017 A 
BRANCH  15  18
HETATM   18  O   UNK N   1      75.316  35.297  -3.872  0.00  0.00    -0.361 OA
HETATM   19  H   UNK N   1      74.655  35.678  -4.467  0.00  0.00     0.217 HD
ENDBRANCH  15  18
ENDBRANCH   5  12
BRANCH   8  20
HETATM   20  O   UNK N   1      77.802  40.505   5.227  0.00  0.00    -0.360 OA
HETATM   21  H   UNK N   1      77.042  41.089   5.296  0.00  0.00     0.217 HD
ENDBRANCH   8  20
BRANCH  10  22
HETATM   22  O   UNK N   1      78.666  36.006   6.398  0.00  0.00    -0.361 OA
HETATM   23  H   UNK N   1      78.316  35.997   7.300  0.00  0.00     0.217 HD
ENDBRANCH  10  22
TORSDOF 4
ENDMDL
MODEL 6
REMARK VINA RESULT:      -5.3      9.103     12.506
REMARK  4 active torsions:
REMARK  status: ('A' for Active; 'I' for Inactive)
REMARK    1  A    between atoms: O_2  and  C_12 
REMARK    2  A    between atoms: O_4  and  C_14 
REMARK    3  A    between atoms: O_5  and  C_20 
REMARK    4  A    between atoms: C_8  and  C_9 
ROOT
HETATM    1  O   UNK N   1      78.168  27.751  -4.478  0.00  0.00    -0.309 OA
HETATM    2  O   UNK N   1      78.993  24.989  -7.199  0.00  0.00    -0.287 OA
HETATM    3  C   UNK N   1      78.809  25.493  -4.956  0.00  0.00     0.081 A 
HETATM    4  C   UNK N   1      78.494  26.536  -4.043  0.00  0.00     0.095 A 
HETATM    5  C   UNK N   1      78.074  28.059  -5.768  0.00  0.00     0.090 A 
HETATM    6  C   UNK N   1      78.739  25.806  -6.338  0.00  0.00     0.190 A 
HETATM    7  C   UNK N   1      78.356  27.086  -6.734  0.00  0.00     0.094 A 
HETATM    8  C   UNK N   1      79.165  24.207  -4.429  0.00  0.00     0.085 A 
HETATM    9  C   UNK N   1      78.510  26.303  -2.665  0.00  0.00     0.075 A 
HETATM   10  C   UNK N   1      78.840  25.047  -2.164  0.00  0.00     0.071 A 
HETATM   11  C   UNK N   1      79.169  24.013  -3.043  0.00  0.00     0.074 A 
ENDROOT
BRANCH   5  12
HETATM   12  C   UNK N   1      77.666  29.436  -6.152  0.00  0.00    -0.002 A 
HETATM   13  C   UNK N   1      76.968  30.271  -5.256  0.00  0.00     0.017 A 
HETATM   14  C   UNK N   1      76.612  31.568  -5.630  0.00  0.00     0.037 A 
HETATM   15  C   UNK N   1      76.929  32.045  -6.908  0.00  0.00     0.065 A 
HETATM   16  C   UNK N   1      77.615  31.221  -7.806  0.00  0.00     0.037 A 
HETATM   17  C   UNK N   1      77.995  29.930  -7.427  0.00  0.00     0.017 A 
BRANCH  15  18
HETATM   18  O   UNK N   1      76.583  33.294  -7.279  0.00  0.00    -0.361 OA
HETATM   19  H   UNK N   1      76.607  33.573  -8.206  0.00  0.00     0.217 HD
ENDBRANCH  15  18
ENDBRANCH   5  12
BRANCH   8  20
HETATM   20  O   UNK N   1      79.499  23.141  -5.194  0.00  0.00    -0.360 OA
HETATM   21  H   UNK N   1      80.371  22.932  -5.538  0.00  0.00     0.217 HD
ENDBRANCH   8  20
BRANCH  10  22
HETATM   22  O   UNK N   1      78.838  24.841  -0.831  0.00  0.00    -0.361 OA
HETATM   23  H   UNK N   1      78.474  25.494  -0.216  0.00  0.00     0.217 HD
ENDBRANCH  10  22
TORSDOF 4
ENDMDL
MODEL 7
REMARK VINA RESULT:      -5.1      1.692      2.382
REMARK  4 active torsions:
REMARK  status: ('A' for Active; 'I' for Inactive)
REMARK    1  A    between atoms: O_2  and  C_12 
REMARK    2  A    between atoms: O_4  and  C_14 
REMARK    3  A    between atoms: O_5  and  C_20 
REMARK    4  A    between atoms: C_8  and  C_9 
ROOT
HETATM    1  O   UNK N   1      76.594  38.139   0.257  0.00  0.00    -0.309 OA
HETATM    2  O   UNK N   1      75.802  35.128  -2.198  0.00  0.00    -0.287 OA
HETATM    3  C   UNK N   1      75.556  37.381  -1.765  0.00  0.00     0.081 A 
HETATM    4  C   UNK N   1      75.886  38.408  -0.838  0.00  0.00     0.095 A 
HETATM    5  C   UNK N   1      77.069  36.929   0.536  0.00  0.00     0.090 A 
HETATM    6  C   UNK N   1      76.032  36.076  -1.475  0.00  0.00     0.190 A 
HETATM    7  C   UNK N   1      76.799  35.864  -0.332  0.00  0.00     0.094 A 
HETATM    8  C   UNK N   1      74.781  37.727  -2.921  0.00  0.00     0.085 A 
HETATM    9  C   UNK N   1      75.482  39.726  -1.064  0.00  0.00     0.075 A 
HETATM   10  C   UNK N   1      74.745  40.054  -2.198  0.00  0.00     0.071 A 
HETATM   11  C   UNK N   1      74.395  39.059  -3.113  0.00  0.00     0.074 A 
ENDROOT
BRANCH   5  12
HETATM   12  C   UNK N   1      77.880  36.739   1.767  0.00  0.00    -0.002 A 
HETATM   13  C   UNK N   1      79.210  36.277   1.704  0.00  0.00     0.017 A 
HETATM   14  C   UNK N   1      79.961  36.124   2.872  0.00  0.00     0.037 A 
HETATM   15  C   UNK N   1      79.391  36.411   4.119  0.00  0.00     0.065 A 
HETATM   16  C   UNK N   1      78.070  36.862   4.190  0.00  0.00     0.037 A 
HETATM   17  C   UNK N   1      77.322  37.040   3.022  0.00  0.00     0.017 A 
BRANCH  15  18
HETATM   18  O   UNK N   1      80.107  36.260   5.251  0.00  0.00    -0.361 OA
HETATM   19  H   UNK N   1      80.756  36.921   5.532  0.00  0.00     0.217 HD
ENDBRANCH  15  18
ENDBRANCH   5  12
BRANCH   8  20
HETATM   20  O   UNK N   1      74.392  36.838  -3.866  0.00  0.00    -0.360 OA
HETATM   21  H   UNK N   1      74.780  36.719  -4.736  0.00  0.00     0.217 HD
ENDBRANCH   8  20
BRANCH  10  22
HETATM   22  O   UNK N   1      74.375  41.335  -2.403  0.00  0.00    -0.361 OA
HETATM   23  H   UNK N   1      74.547  41.787  -3.241  0.00  0.00     0.217 HD
ENDBRANCH  10  22
TORSDOF 4
ENDMDL
MODEL 8
REMARK VINA RESULT:      -5.0     13.981     15.643
REMARK  4 active torsions:
REMARK  status: ('A' for Active; 'I' for Inactive)
REMARK    1  A    between atoms: O_2  and  C_12 
REMARK    2  A    between atoms: O_4  and  C_14 
REMARK    3  A    between atoms: O_5  and  C_20 
REMARK    4  A    between atoms: C_8  and  C_9 
ROOT
HETATM    1  O   UNK N   1      81.458  23.490   4.496  0.00  0.00    -0.309 OA
HETATM    2  O   UNK N   1      84.881  21.491   4.424  0.00  0.00    -0.287 OA
HETATM    3  C   UNK N   1      82.744  21.690   3.577  0.00  0.00     0.081 A 
HETATM    4  C   UNK N   1      81.551  22.460   3.658  0.00  0.00     0.095 A 
HETATM    5  C   UNK N   1      82.462  23.890   5.270  0.00  0.00     0.090 A 
HETATM    6  C   UNK N   1      83.822  22.084   4.412  0.00  0.00     0.190 A 
HETATM    7  C   UNK N   1      83.676  23.193   5.242  0.00  0.00     0.094 A 
HETATM    8  C   UNK N   1      82.784  20.584   2.664  0.00  0.00     0.085 A 
HETATM    9  C   UNK N   1      80.454  22.157   2.849  0.00  0.00     0.075 A 
HETATM   10  C   UNK N   1      80.508  21.092   1.954  0.00  0.00     0.071 A 
HETATM   11  C   UNK N   1      81.663  20.312   1.870  0.00  0.00     0.074 A 
ENDROOT
BRANCH   5  12
HETATM   12  C   UNK N   1      82.269  25.075   6.146  0.00  0.00    -0.002 A 
HETATM   13  C   UNK N   1      83.366  25.763   6.702  0.00  0.00     0.017 A 
HETATM   14  C   UNK N   1      83.163  26.886   7.507  0.00  0.00     0.037 A 
HETATM   15  C   UNK N   1      81.864  27.327   7.785  0.00  0.00     0.065 A 
HETATM   16  C   UNK N   1      80.769  26.646   7.244  0.00  0.00     0.037 A 
HETATM   17  C   UNK N   1      80.969  25.536   6.418  0.00  0.00     0.017 A 
BRANCH  15  18
HETATM   18  O   UNK N   1      81.659  28.406   8.567  0.00  0.00    -0.361 OA
HETATM   19  H   UNK N   1      82.327  29.101   8.658  0.00  0.00     0.217 HD
ENDBRANCH  15  18
ENDBRANCH   5  12
BRANCH   8  20
HETATM   20  O   UNK N   1      83.853  19.769   2.508  0.00  0.00    -0.360 OA
HETATM   21  H   UNK N   1      84.491  19.523   3.183  0.00  0.00     0.217 HD
ENDBRANCH   8  20
BRANCH  10  22
HETATM   22  O   UNK N   1      79.441  20.825   1.173  0.00  0.00    -0.361 OA
HETATM   23  H   UNK N   1      79.340  21.219   0.296  0.00  0.00     0.217 HD
ENDBRANCH  10  22
TORSDOF 4
ENDMDL
MODEL 9
REMARK VINA RESULT:      -5.0     13.345     15.985
REMARK  4 active torsions:
REMARK  status: ('A' for Active; 'I' for Inactive)
REMARK    1  A    between atoms: O_2  and  C_12 
REMARK    2  A    between atoms: O_4  and  C_14 
REMARK    3  A    between atoms: O_5  and  C_20 
REMARK    4  A    between atoms: C_8  and  C_9 
ROOT
HETATM    1  O   UNK N   1      82.414  24.989   6.708  0.00  0.00    -0.309 OA
HETATM    2  O   UNK N   1      84.236  28.096   5.053  0.00  0.00    -0.287 OA
HETATM    3  C   UNK N   1      83.145  27.261   6.907  0.00  0.00     0.081 A 
HETATM    4  C   UNK N   1      82.511  26.102   7.432  0.00  0.00     0.095 A 
HETATM    5  C   UNK N   1      82.927  24.869   5.488  0.00  0.00     0.090 A 
HETATM    6  C   UNK N   1      83.680  27.164   5.596  0.00  0.00     0.190 A 
HETATM    7  C   UNK N   1      83.579  25.960   4.902  0.00  0.00     0.094 A 
HETATM    8  C   UNK N   1      83.211  28.436   7.727  0.00  0.00     0.085 A 
HETATM    9  C   UNK N   1      81.985  26.105   8.726  0.00  0.00     0.075 A 
HETATM   10  C   UNK N   1      82.068  27.245   9.521  0.00  0.00     0.071 A 
HETATM   11  C   UNK N   1      82.672  28.400   9.019  0.00  0.00     0.074 A 
ENDROOT
BRANCH   5  12
HETATM   12  C   UNK N   1      82.796  23.570   4.776  0.00  0.00    -0.002 A 
HETATM   13  C   UNK N   1      81.625  23.238   4.066  0.00  0.00     0.017 A 
HETATM   14  C   UNK N   1      81.531  22.022   3.388  0.00  0.00     0.037 A 
HETATM   15  C   UNK N   1      82.593  21.110   3.425  0.00  0.00     0.065 A 
HETATM   16  C   UNK N   1      83.755  21.427   4.134  0.00  0.00     0.037 A 
HETATM   17  C   UNK N   1      83.864  22.656   4.794  0.00  0.00     0.017 A 
BRANCH  15  18
HETATM   18  O   UNK N   1      82.507  19.930   2.778  0.00  0.00    -0.361 OA
HETATM   19  H   UNK N   1      83.146  19.677   2.097  0.00  0.00     0.217 HD
ENDBRANCH  15  18
ENDBRANCH   5  12
BRANCH   8  20
HETATM   20  O   UNK N   1      83.774  29.604   7.335  0.00  0.00    -0.360 OA
HETATM   21  H   UNK N   1      83.429  30.215   6.679  0.00  0.00     0.217 HD
ENDBRANCH   8  20
BRANCH  10  22
HETATM   22  O   UNK N   1      81.564  27.222  10.772  0.00  0.00    -0.361 OA
HETATM   23  H   UNK N   1      81.696  26.465  11.359  0.00  0.00     0.217 HD
ENDBRANCH  10  22
TORSDOF 4
ENDMDL
