MODEL 1
REMARK VINA RESULT:      -5.4      0.000      0.000
REMARK  5 active torsions:
REMARK  status: ('A' for Active; 'I' for Inactive)
REMARK    1  A    between atoms: O_2  and  C_11 
REMARK    2  A    between atoms: O_3  and  C_13 
REMARK    3  A    between atoms: O_5  and  C_15 
REMARK    4  A    between atoms: O_6  and  C_21 
REMARK    5  A    between atoms: C_9  and  C_12 
ROOT
HETATM    1  O   UNK N   1      49.970  15.811  15.607  0.00  0.00    -0.306 OA
HETATM    2  O   UNK N   1      46.643  17.801  14.766  0.00  0.00    -0.284 OA
HETATM    3  C   UNK N   1      48.444  17.558  16.187  0.00  0.00     0.084 A 
HETATM    4  C   UNK N   1      49.623  16.798  16.423  0.00  0.00     0.096 A 
HETATM    5  C   UNK N   1      49.258  15.471  14.541  0.00  0.00     0.123 A 
HETATM    6  C   UNK N   1      47.668  17.210  15.049  0.00  0.00     0.223 A 
HETATM    7  C   UNK N   1      48.080  16.161  14.224  0.00  0.00     0.152 A 
HETATM    8  C   UNK N   1      48.121  18.613  17.103  0.00  0.00     0.085 A 
HETATM    9  C   UNK N   1      50.443  17.074  17.520  0.00  0.00     0.075 A 
HETATM   10  C   UNK N   1      50.118  18.100  18.403  0.00  0.00     0.071 A 
HETATM   11  C   UNK N   1      48.966  18.860  18.192  0.00  0.00     0.074 A 
ENDROOT
BRANCH   5  12
HETATM   12  C   UNK N   1      49.738  14.372  13.708  0.00  0.00     0.001 A 
HETATM   13  C   UNK N   1      50.630  14.629  12.662  0.00  0.00     0.017 A 
HETATM   14  C   UNK N   1      51.103  13.578  11.875  0.00  0.00     0.037 A 
HETATM   15  C   UNK N   1      50.686  12.263  12.132  0.00  0.00     0.065 A 
HETATM   16  C   UNK N   1      49.787  12.010  13.176  0.00  0.00     0.037 A 
HETATM   17  C   UNK N   1      49.314  13.061  13.965  0.00  0.00     0.017 A 
BRANCH  15  18
HETATM   18  O   UNK N   1      51.145  11.242  11.384  0.00  0.00    -0.361 OA
HETATM   19  H   UNK N   1      51.806  10.622  11.726  0.00  0.00     0.217 HD
ENDBRANCH  15  18
ENDBRANCH   5  12
BRANCH   7  20
HETATM   20  O   UNK N   1      47.335  15.832  13.142  0.00  0.00    -0.355 OA
HETATM   21  H   UNK N   1      47.178  14.918  12.869  0.00  0.00     0.218 HD
ENDBRANCH   7  20
BRANCH   8  22
HETATM   22  O   UNK N   1      47.031  19.408  16.989  0.00  0.00    -0.360 OA
HETATM   23  H   UNK N   1      46.663  19.763  16.177  0.00  0.00     0.217 HD
ENDBRANCH   8  22
BRANCH  10  24
HETATM   24  O   UNK N   1      50.920  18.351  19.457  0.00  0.00    -0.361 OA
HETATM   25  H   UNK N   1      50.588  18.315  20.366  0.00  0.00     0.217 HD
ENDBRANCH  10  24
TORSDOF 5
ENDMDL
MODEL 2
REMARK VINA RESULT:      -5.2     37.158     38.274
REMARK  5 active torsions:
REMARK  status: ('A' for Active; 'I' for Inactive)
REMARK    1  A    between atoms: O_2  and  C_11 
REMARK    2  A    between atoms: O_3  and  C_13 
REMARK    3  A    between atoms: O_5  and  C_15 
REMARK    4  A    between atoms: O_6  and  C_21 
REMARK    5  A    between atoms: C_9  and  C_12 
ROOT
HETATM    1  O   UNK N   1      76.687  38.166   0.289  0.00  0.00    -0.306 OA
HETATM    2  O   UNK N   1      75.778  35.137  -2.105  0.00  0.00    -0.284 OA
HETATM    3  C   UNK N   1      75.595  37.400  -1.695  0.00  0.00     0.084 A 
HETATM    4  C   UNK N   1      75.960  38.433  -0.788  0.00  0.00     0.096 A 
HETATM    5  C   UNK N   1      77.112  36.947   0.589  0.00  0.00     0.123 A 
HETATM    6  C   UNK N   1      76.041  36.086  -1.391  0.00  0.00     0.223 A 
HETATM    7  C   UNK N   1      76.803  35.861  -0.243  0.00  0.00     0.152 A 
HETATM    8  C   UNK N   1      74.809  37.750  -2.842  0.00  0.00     0.085 A 
HETATM    9  C   UNK N   1      75.561  39.753  -1.011  0.00  0.00     0.075 A 
HETATM   10  C   UNK N   1      74.798  40.080  -2.128  0.00  0.00     0.071 A 
HETATM   11  C   UNK N   1      74.427  39.083  -3.033  0.00  0.00     0.074 A 
ENDROOT
BRANCH   5  12
HETATM   12  C   UNK N   1      77.912  36.769   1.799  0.00  0.00     0.001 A 
HETATM   13  C   UNK N   1      77.314  36.902   3.056  0.00  0.00     0.017 A 
HETATM   14  C   UNK N   1      78.072  36.717   4.212  0.00  0.00     0.037 A 
HETATM   15  C   UNK N   1      79.435  36.396   4.116  0.00  0.00     0.065 A 
HETATM   16  C   UNK N   1      80.033  36.270   2.855  0.00  0.00     0.037 A 
HETATM   17  C   UNK N   1      79.274  36.455   1.698  0.00  0.00     0.017 A 
BRANCH  15  18
HETATM   18  O   UNK N   1      80.173  36.205   5.226  0.00  0.00    -0.361 OA
HETATM   19  H   UNK N   1      80.258  36.895   5.900  0.00  0.00     0.217 HD
ENDBRANCH  15  18
ENDBRANCH   5  12
BRANCH   7  20
HETATM   20  O   UNK N   1      77.225  34.607   0.043  0.00  0.00    -0.355 OA
HETATM   21  H   UNK N   1      77.222  33.889  -0.606  0.00  0.00     0.218 HD
ENDBRANCH   7  20
BRANCH   8  22
HETATM   22  O   UNK N   1      74.398  36.862  -3.778  0.00  0.00    -0.360 OA
HETATM   23  H   UNK N   1      74.546  36.918  -4.725  0.00  0.00     0.217 HD
ENDBRANCH   8  22
BRANCH  10  24
HETATM   24  O   UNK N   1      74.420  41.359  -2.327  0.00  0.00    -0.361 OA
HETATM   25  H   UNK N   1      73.876  41.833  -1.682  0.00  0.00     0.217 HD
ENDBRANCH  10  24
TORSDOF 5
ENDMDL
MODEL 3
REMARK VINA RESULT:      -5.2     37.349     38.219
REMARK  5 active torsions:
REMARK  status: ('A' for Active; 'I' for Inactive)
REMARK    1  A    between atoms: O_2  and  C_11 
REMARK    2  A    between atoms: O_3  and  C_13 
REMARK    3  A    between atoms: O_5  and  C_15 
REMARK    4  A    between atoms: O_6  and  C_21 
REMARK    5  A    between atoms: C_9  and  C_12 
ROOT
HETATM    1  O   UNK N   1      76.168  37.657   0.264  0.00  0.00    -0.306 OA
HETATM    2  O   UNK N   1      78.109  34.503  -1.160  0.00  0.00    -0.284 OA
HETATM    3  C   UNK N   1      76.519  36.131  -1.543  0.00  0.00     0.084 A 
HETATM    4  C   UNK N   1      75.865  37.253  -0.963  0.00  0.00     0.096 A 
HETATM    5  C   UNK N   1      77.078  37.055   1.017  0.00  0.00     0.123 A 
HETATM    6  C   UNK N   1      77.498  35.473  -0.752  0.00  0.00     0.223 A 
HETATM    7  C   UNK N   1      77.777  35.940   0.535  0.00  0.00     0.152 A 
HETATM    8  C   UNK N   1      76.150  35.743  -2.873  0.00  0.00     0.085 A 
HETATM    9  C   UNK N   1      74.889  37.956  -1.674  0.00  0.00     0.075 A 
HETATM   10  C   UNK N   1      74.539  37.569  -2.963  0.00  0.00     0.071 A 
HETATM   11  C   UNK N   1      75.167  36.471  -3.554  0.00  0.00     0.074 A 
ENDROOT
BRANCH   5  12
HETATM   12  C   UNK N   1      77.336  37.589   2.353  0.00  0.00     0.001 A 
HETATM   13  C   UNK N   1      77.655  36.720   3.401  0.00  0.00     0.017 A 
HETATM   14  C   UNK N   1      77.918  37.229   4.673  0.00  0.00     0.037 A 
HETATM   15  C   UNK N   1      77.863  38.612   4.902  0.00  0.00     0.065 A 
HETATM   16  C   UNK N   1      77.536  39.480   3.853  0.00  0.00     0.037 A 
HETATM   17  C   UNK N   1      77.274  38.970   2.579  0.00  0.00     0.017 A 
BRANCH  15  18
HETATM   18  O   UNK N   1      78.126  39.113   6.125  0.00  0.00    -0.361 OA
HETATM   19  H   UNK N   1      77.807  39.988   6.391  0.00  0.00     0.217 HD
ENDBRANCH  15  18
ENDBRANCH   5  12
BRANCH   7  20
HETATM   20  O   UNK N   1      78.709  35.308   1.286  0.00  0.00    -0.355 OA
HETATM   21  H   UNK N   1      79.500  34.897   0.909  0.00  0.00     0.218 HD
ENDBRANCH   7  20
BRANCH   8  22
HETATM   22  O   UNK N   1      76.697  34.696  -3.536  0.00  0.00    -0.360 OA
HETATM   23  H   UNK N   1      76.537  34.450  -4.450  0.00  0.00     0.217 HD
ENDBRANCH   8  22
BRANCH  10  24
HETATM   24  O   UNK N   1      73.594  38.258  -3.633  0.00  0.00    -0.361 OA
HETATM   25  H   UNK N   1      73.553  38.254  -4.601  0.00  0.00     0.217 HD
ENDBRANCH  10  24
TORSDOF 5
ENDMDL
MODEL 4
REMARK VINA RESULT:      -5.1     34.418     35.959
REMARK  5 active torsions:
REMARK  status: ('A' for Active; 'I' for Inactive)
REMARK    1  A    between atoms: O_2  and  C_11 
REMARK    2  A    between atoms: O_3  and  C_13 
REMARK    3  A    between atoms: O_5  and  C_15 
REMARK    4  A    between atoms: O_6  and  C_21 
REMARK    5  A    between atoms: C_9  and  C_12 
ROOT
HETATM    1  O   UNK N   1      80.906  28.807   6.135  0.00  0.00    -0.306 OA
HETATM    2  O   UNK N   1      81.618  25.543   3.996  0.00  0.00    -0.284 OA
HETATM    3  C   UNK N   1      80.436  27.516   4.178  0.00  0.00     0.084 A 
HETATM    4  C   UNK N   1      80.234  28.659   5.000  0.00  0.00     0.096 A 
HETATM    5  C   UNK N   1      81.789  27.920   6.572  0.00  0.00     0.123 A 
HETATM    6  C   UNK N   1      81.379  26.554   4.629  0.00  0.00     0.223 A 
HETATM    7  C   UNK N   1      82.057  26.759   5.832  0.00  0.00     0.152 A 
HETATM    8  C   UNK N   1      79.682  27.412   2.963  0.00  0.00     0.085 A 
HETATM    9  C   UNK N   1      79.324  29.653   4.631  0.00  0.00     0.075 A 
HETATM   10  C   UNK N   1      78.598  29.540   3.450  0.00  0.00     0.071 A 
HETATM   11  C   UNK N   1      78.778  28.427   2.626  0.00  0.00     0.074 A 
ENDROOT
BRANCH   5  12
HETATM   12  C   UNK N   1      82.476  28.188   7.833  0.00  0.00     0.001 A 
HETATM   13  C   UNK N   1      83.703  28.859   7.829  0.00  0.00     0.017 A 
HETATM   14  C   UNK N   1      84.353  29.132   9.033  0.00  0.00     0.037 A 
HETATM   15  C   UNK N   1      83.777  28.733  10.249  0.00  0.00     0.065 A 
HETATM   16  C   UNK N   1      82.552  28.055  10.250  0.00  0.00     0.037 A 
HETATM   17  C   UNK N   1      81.900  27.783   9.045  0.00  0.00     0.017 A 
BRANCH  15  18
HETATM   18  O   UNK N   1      84.393  29.001  11.417  0.00  0.00    -0.361 OA
HETATM   19  H   UNK N   1      85.358  28.977  11.495  0.00  0.00     0.217 HD
ENDBRANCH  15  18
ENDBRANCH   5  12
BRANCH   7  20
HETATM   20  O   UNK N   1      82.953  25.839   6.258  0.00  0.00    -0.355 OA
HETATM   21  H   UNK N   1      82.703  25.055   6.768  0.00  0.00     0.218 HD
ENDBRANCH   7  20
BRANCH   8  22
HETATM   22  O   UNK N   1      79.782  26.377   2.095  0.00  0.00    -0.360 OA
HETATM   23  H   UNK N   1      80.202  25.530   2.259  0.00  0.00     0.217 HD
ENDBRANCH   8  22
BRANCH  10  24
HETATM   24  O   UNK N   1      77.722  30.507   3.110  0.00  0.00    -0.361 OA
HETATM   25  H   UNK N   1      77.724  30.905   2.227  0.00  0.00     0.217 HD
ENDBRANCH  10  24
TORSDOF 5
ENDMDL
MODEL 5
REMARK VINA RESULT:      -5.0     37.288     38.422
REMARK  5 active torsions:
REMARK  status: ('A' for Active; 'I' for Inactive)
REMARK    1  A    between atoms: O_2  and  C_11 
REMARK    2  A    between atoms: O_3  and  C_13 
REMARK    3  A    between atoms: O_5  and  C_15 
REMARK    4  A    between atoms: O_6  and  C_21 
REMARK    5  A    between atoms: C_9  and  C_12 
ROOT
HETATM    1  O   UNK N   1      76.671  36.942  -0.017  0.00  0.00    -0.306 OA
HETATM    2  O   UNK N   1      75.799  40.811  -0.117  0.00  0.00    -0.284 OA
HETATM    3  C   UNK N   1      75.572  38.750  -1.131  0.00  0.00     0.084 A 
HETATM    4  C   UNK N   1      75.927  37.377  -1.026  0.00  0.00     0.096 A 
HETATM    5  C   UNK N   1      77.126  37.739   0.940  0.00  0.00     0.123 A 
HETATM    6  C   UNK N   1      76.049  39.620  -0.114  0.00  0.00     0.223 A 
HETATM    7  C   UNK N   1      76.829  39.109   0.925  0.00  0.00     0.152 A 
HETATM    8  C   UNK N   1      74.765  39.160  -2.242  0.00  0.00     0.085 A 
HETATM    9  C   UNK N   1      75.500  36.454  -1.984  0.00  0.00     0.075 A 
HETATM   10  C   UNK N   1      74.718  36.865  -3.060  0.00  0.00     0.071 A 
HETATM   11  C   UNK N   1      74.357  38.208  -3.184  0.00  0.00     0.074 A 
ENDROOT
BRANCH   5  12
HETATM   12  C   UNK N   1      77.932  37.151   2.007  0.00  0.00     0.001 A 
HETATM   13  C   UNK N   1      79.235  36.720   1.739  0.00  0.00     0.017 A 
HETATM   14  C   UNK N   1      80.013  36.173   2.760  0.00  0.00     0.037 A 
HETATM   15  C   UNK N   1      79.489  36.055   4.057  0.00  0.00     0.065 A 
HETATM   16  C   UNK N   1      78.181  36.481   4.321  0.00  0.00     0.037 A 
HETATM   17  C   UNK N   1      77.403  37.029   3.299  0.00  0.00     0.017 A 
BRANCH  15  18
HETATM   18  O   UNK N   1      80.235  35.537   5.052  0.00  0.00    -0.361 OA
HETATM   19  H   UNK N   1      79.917  34.798   5.589  0.00  0.00     0.217 HD
ENDBRANCH  15  18
ENDBRANCH   5  12
BRANCH   7  20
HETATM   20  O   UNK N   1      77.283  39.943   1.891  0.00  0.00    -0.355 OA
HETATM   21  H   UNK N   1      76.887  40.807   2.070  0.00  0.00     0.218 HD
ENDBRANCH   7  20
BRANCH   8  22
HETATM   22  O   UNK N   1      74.358  40.435  -2.454  0.00  0.00    -0.360 OA
HETATM   23  H   UNK N   1      73.652  40.721  -3.036  0.00  0.00     0.217 HD
ENDBRANCH   8  22
BRANCH  10  24
HETATM   24  O   UNK N   1      74.317  35.961  -3.976  0.00  0.00    -0.361 OA
HETATM   25  H   UNK N   1      74.178  36.206  -4.902  0.00  0.00     0.217 HD
ENDBRANCH  10  24
TORSDOF 5
ENDMDL
MODEL 6
REMARK VINA RESULT:      -5.0     34.492     36.593
REMARK  5 active torsions:
REMARK  status: ('A' for Active; 'I' for Inactive)
REMARK    1  A    between atoms: O_2  and  C_11 
REMARK    2  A    between atoms: O_3  and  C_13 
REMARK    3  A    between atoms: O_5  and  C_15 
REMARK    4  A    between atoms: O_6  and  C_21 
REMARK    5  A    between atoms: C_9  and  C_12 
ROOT
HETATM    1  O   UNK N   1      83.789  23.612   5.415  0.00  0.00    -0.306 OA
HETATM    2  O   UNK N   1      82.319  20.856   2.970  0.00  0.00    -0.284 OA
HETATM    3  C   UNK N   1      84.104  21.543   4.260  0.00  0.00     0.084 A 
HETATM    4  C   UNK N   1      84.561  22.572   5.128  0.00  0.00     0.096 A 
HETATM    5  C   UNK N   1      82.567  23.762   4.922  0.00  0.00     0.123 A 
HETATM    6  C   UNK N   1      82.797  21.684   3.722  0.00  0.00     0.223 A 
HETATM    7  C   UNK N   1      82.027  22.800   4.057  0.00  0.00     0.152 A 
HETATM    8  C   UNK N   1      84.983  20.443   3.988  0.00  0.00     0.085 A 
HETATM    9  C   UNK N   1      85.835  22.511   5.699  0.00  0.00     0.075 A 
HETATM   10  C   UNK N   1      86.679  21.440   5.427  0.00  0.00     0.071 A 
HETATM   11  C   UNK N   1      86.253  20.416   4.578  0.00  0.00     0.074 A 
ENDROOT
BRANCH   5  12
HETATM   12  C   UNK N   1      81.802  24.944   5.311  0.00  0.00     0.001 A 
HETATM   13  C   UNK N   1      81.780  26.066   4.475  0.00  0.00     0.017 A 
HETATM   14  C   UNK N   1      81.038  27.190   4.835  0.00  0.00     0.037 A 
HETATM   15  C   UNK N   1      80.311  27.197   6.036  0.00  0.00     0.065 A 
HETATM   16  C   UNK N   1      80.341  26.076   6.875  0.00  0.00     0.037 A 
HETATM   17  C   UNK N   1      81.084  24.950   6.513  0.00  0.00     0.017 A 
BRANCH  15  18
HETATM   18  O   UNK N   1      79.583  28.275   6.388  0.00  0.00    -0.361 OA
HETATM   19  H   UNK N   1      80.005  29.099   6.669  0.00  0.00     0.217 HD
ENDBRANCH  15  18
ENDBRANCH   5  12
BRANCH   7  20
HETATM   20  O   UNK N   1      80.782  22.931   3.540  0.00  0.00    -0.355 OA
HETATM   21  H   UNK N   1      80.265  22.181   3.214  0.00  0.00     0.218 HD
ENDBRANCH   7  20
BRANCH   8  22
HETATM   22  O   UNK N   1      84.667  19.401   3.183  0.00  0.00    -0.360 OA
HETATM   23  H   UNK N   1      84.649  19.404   2.223  0.00  0.00     0.217 HD
ENDBRANCH   8  22
BRANCH  10  24
HETATM   24  O   UNK N   1      87.906  21.398   5.985  0.00  0.00    -0.361 OA
HETATM   25  H   UNK N   1      88.650  20.966   5.542  0.00  0.00     0.217 HD
ENDBRANCH  10  24
TORSDOF 5
ENDMDL
MODEL 7
REMARK VINA RESULT:      -5.0     35.901     37.913
REMARK  5 active torsions:
REMARK  status: ('A' for Active; 'I' for Inactive)
REMARK    1  A    between atoms: O_2  and  C_11 
REMARK    2  A    between atoms: O_3  and  C_13 
REMARK    3  A    between atoms: O_5  and  C_15 
REMARK    4  A    between atoms: O_6  and  C_21 
REMARK    5  A    between atoms: C_9  and  C_12 
ROOT
HETATM    1  O   UNK N   1      78.140  29.045  -4.432  0.00  0.00    -0.306 OA
HETATM    2  O   UNK N   1      79.070  28.413  -8.236  0.00  0.00    -0.284 OA
HETATM    3  C   UNK N   1      78.099  29.825  -6.692  0.00  0.00     0.084 A 
HETATM    4  C   UNK N   1      77.799  29.980  -5.310  0.00  0.00     0.096 A 
HETATM    5  C   UNK N   1      78.768  27.929  -4.774  0.00  0.00     0.123 A 
HETATM    6  C   UNK N   1      78.773  28.635  -7.078  0.00  0.00     0.223 A 
HETATM    7  C   UNK N   1      79.107  27.684  -6.112  0.00  0.00     0.152 A 
HETATM    8  C   UNK N   1      77.706  30.869  -7.593  0.00  0.00     0.085 A 
HETATM    9  C   UNK N   1      77.137  31.119  -4.846  0.00  0.00     0.075 A 
HETATM   10  C   UNK N   1      76.760  32.125  -5.731  0.00  0.00     0.071 A 
HETATM   11  C   UNK N   1      77.044  31.996  -7.092  0.00  0.00     0.074 A 
ENDROOT
BRANCH   5  12
HETATM   12  C   UNK N   1      79.102  26.971  -3.722  0.00  0.00     0.001 A 
HETATM   13  C   UNK N   1      80.421  26.867  -3.268  0.00  0.00     0.017 A 
HETATM   14  C   UNK N   1      80.739  25.965  -2.252  0.00  0.00     0.037 A 
HETATM   15  C   UNK N   1      79.738  25.163  -1.684  0.00  0.00     0.065 A 
HETATM   16  C   UNK N   1      78.419  25.264  -2.146  0.00  0.00     0.037 A 
HETATM   17  C   UNK N   1      78.100  26.168  -3.162  0.00  0.00     0.017 A 
BRANCH  15  18
HETATM   18  O   UNK N   1      80.034  24.296  -0.696  0.00  0.00    -0.361 OA
HETATM   19  H   UNK N   1      79.346  23.772  -0.261  0.00  0.00     0.217 HD
ENDBRANCH  15  18
ENDBRANCH   5  12
BRANCH   7  20
HETATM   20  O   UNK N   1      79.747  26.551  -6.485  0.00  0.00    -0.355 OA
HETATM   21  H   UNK N   1      80.343  26.065  -5.898  0.00  0.00     0.218 HD
ENDBRANCH   7  20
BRANCH   8  22
HETATM   22  O   UNK N   1      77.934  30.843  -8.928  0.00  0.00    -0.360 OA
HETATM   23  H   UNK N   1      78.318  31.545  -9.457  0.00  0.00     0.217 HD
ENDBRANCH   8  22
BRANCH  10  24
HETATM   24  O   UNK N   1      76.121  33.217  -5.266  0.00  0.00    -0.361 OA
HETATM   25  H   UNK N   1      76.542  34.089  -5.264  0.00  0.00     0.217 HD
ENDBRANCH  10  24
TORSDOF 5
ENDMDL
MODEL 8
REMARK VINA RESULT:      -5.0     37.246     39.376
REMARK  5 active torsions:
REMARK  status: ('A' for Active; 'I' for Inactive)
REMARK    1  A    between atoms: O_2  and  C_11 
REMARK    2  A    between atoms: O_3  and  C_13 
REMARK    3  A    between atoms: O_5  and  C_15 
REMARK    4  A    between atoms: O_6  and  C_21 
REMARK    5  A    between atoms: C_9  and  C_12 
ROOT
HETATM    1  O   UNK N   1      78.338  27.329  -8.962  0.00  0.00    -0.306 OA
HETATM    2  O   UNK N   1      78.172  23.563  -7.728  0.00  0.00    -0.284 OA
HETATM    3  C   UNK N   1      78.363  25.005  -9.519  0.00  0.00     0.084 A 
HETATM    4  C   UNK N   1      78.415  26.379  -9.884  0.00  0.00     0.096 A 
HETATM    5  C   UNK N   1      78.209  27.072  -7.668  0.00  0.00     0.123 A 
HETATM    6  C   UNK N   1      78.226  24.707  -8.137  0.00  0.00     0.223 A 
HETATM    7  C   UNK N   1      78.149  25.749  -7.209  0.00  0.00     0.152 A 
HETATM    8  C   UNK N   1      78.452  24.022 -10.560  0.00  0.00     0.085 A 
HETATM    9  C   UNK N   1      78.547  26.757 -11.222  0.00  0.00     0.075 A 
HETATM   10  C   UNK N   1      78.632  25.794 -12.223  0.00  0.00     0.071 A 
HETATM   11  C   UNK N   1      78.583  24.439 -11.890  0.00  0.00     0.074 A 
ENDROOT
BRANCH   5  12
HETATM   12  C   UNK N   1      78.140  28.198  -6.740  0.00  0.00     0.001 A 
HETATM   13  C   UNK N   1      79.312  28.694  -6.159  0.00  0.00     0.017 A 
HETATM   14  C   UNK N   1      79.252  29.779  -5.285  0.00  0.00     0.037 A 
HETATM   15  C   UNK N   1      78.016  30.376  -4.989  0.00  0.00     0.065 A 
HETATM   16  C   UNK N   1      76.844  29.874  -5.567  0.00  0.00     0.037 A 
HETATM   17  C   UNK N   1      76.905  28.787  -6.443  0.00  0.00     0.017 A 
BRANCH  15  18
HETATM   18  O   UNK N   1      77.950  31.431  -4.154  0.00  0.00    -0.361 OA
HETATM   19  H   UNK N   1      77.640  31.334  -3.242  0.00  0.00     0.217 HD
ENDBRANCH  15  18
ENDBRANCH   5  12
BRANCH   7  20
HETATM   20  O   UNK N   1      78.017  25.460  -5.893  0.00  0.00    -0.355 OA
HETATM   21  H   UNK N   1      77.965  24.555  -5.554  0.00  0.00     0.218 HD
ENDBRANCH   7  20
BRANCH   8  22
HETATM   22  O   UNK N   1      78.417  22.685 -10.344  0.00  0.00    -0.360 OA
HETATM   23  H   UNK N   1      78.489  21.996 -11.008  0.00  0.00     0.217 HD
ENDBRANCH   8  22
BRANCH  10  24
HETATM   24  O   UNK N   1      78.757  26.178 -13.509  0.00  0.00    -0.361 OA
HETATM   25  H   UNK N   1      78.944  27.098 -13.748  0.00  0.00     0.217 HD
ENDBRANCH  10  24
TORSDOF 5
ENDMDL
MODEL 9
REMARK VINA RESULT:      -4.9      2.148      7.038
REMARK  5 active torsions:
REMARK  status: ('A' for Active; 'I' for Inactive)
REMARK    1  A    between atoms: O_2  and  C_11 
REMARK    2  A    between atoms: O_3  and  C_13 
REMARK    3  A    between atoms: O_5  and  C_15 
REMARK    4  A    between atoms: O_6  and  C_21 
REMARK    5  A    between atoms: C_9  and  C_12 
ROOT
HETATM    1  O   UNK N   1      47.798  13.896  14.474  0.00  0.00    -0.306 OA
HETATM    2  O   UNK N   1      50.842  13.098  12.058  0.00  0.00    -0.284 OA
HETATM    3  C   UNK N   1      48.907  12.327  13.050  0.00  0.00     0.084 A 
HETATM    4  C   UNK N   1      47.847  12.687  13.928  0.00  0.00     0.096 A 
HETATM    5  C   UNK N   1      48.712  14.828  14.247  0.00  0.00     0.123 A 
HETATM    6  C   UNK N   1      49.897  13.313  12.793  0.00  0.00     0.223 A 
HETATM    7  C   UNK N   1      49.796  14.569  13.396  0.00  0.00     0.152 A 
HETATM    8  C   UNK N   1      48.905  11.007  12.490  0.00  0.00     0.085 A 
HETATM    9  C   UNK N   1      46.833  11.777  14.234  0.00  0.00     0.075 A 
HETATM   10  C   UNK N   1      46.843  10.498  13.685  0.00  0.00     0.071 A 
HETATM   11  C   UNK N   1      47.873  10.121  12.821  0.00  0.00     0.074 A 
ENDROOT
BRANCH   5  12
HETATM   12  C   UNK N   1      48.555  16.127  14.896  0.00  0.00     0.001 A 
HETATM   13  C   UNK N   1      47.892  17.163  14.230  0.00  0.00     0.017 A 
HETATM   14  C   UNK N   1      47.725  18.400  14.855  0.00  0.00     0.037 A 
HETATM   15  C   UNK N   1      48.222  18.605  16.151  0.00  0.00     0.065 A 
HETATM   16  C   UNK N   1      48.892  17.568  16.813  0.00  0.00     0.037 A 
HETATM   17  C   UNK N   1      49.057  16.330  16.188  0.00  0.00     0.017 A 
BRANCH  15  18
HETATM   18  O   UNK N   1      48.057  19.792  16.766  0.00  0.00    -0.361 OA
HETATM   19  H   UNK N   1      48.249  19.904  17.708  0.00  0.00     0.217 HD
ENDBRANCH  15  18
ENDBRANCH   5  12
BRANCH   7  20
HETATM   20  O   UNK N   1      50.743  15.504  13.149  0.00  0.00    -0.355 OA
HETATM   21  H   UNK N   1      51.410  15.409  12.455  0.00  0.00     0.218 HD
ENDBRANCH   7  20
BRANCH   8  22
HETATM   22  O   UNK N   1      49.854  10.543  11.642  0.00  0.00    -0.360 OA
HETATM   23  H   UNK N   1      50.403  11.067  11.055  0.00  0.00     0.217 HD
ENDBRANCH   8  22
BRANCH  10  24
HETATM   24  O   UNK N   1      45.858   9.632  13.993  0.00  0.00    -0.361 OA
HETATM   25  H   UNK N   1      45.983   8.674  13.919  0.00  0.00     0.217 HD
ENDBRANCH  10  24
TORSDOF 5
ENDMDL
