MODEL 1
REMARK VINA RESULT:      -6.4      0.000      0.000
REMARK  16 active torsions:
REMARK  status: ('A' for Active; 'I' for Inactive)
REMARK    1  A    between atoms: O_2  and  C_22 
REMARK    2  A    between atoms: O_2  and  C_26 
REMARK    3  A    between atoms: O_4  and  C_18 
REMARK    4  A    between atoms: O_5  and  C_19 
REMARK    5  A    between atoms: O_6  and  C_25 
REMARK    6  A    between atoms: O_6  and  C_29 
REMARK    7  A    between atoms: O_7  and  C_20 
REMARK    8  A    between atoms: O_8  and  C_21 
REMARK    9  A    between atoms: O_9  and  C_23 
REMARK   10  A    between atoms: O_10  and  C_24 
REMARK   11  A    between atoms: O_13  and  C_35 
REMARK   12  A    between atoms: O_14  and  C_40 
REMARK   13  A    between atoms: O_15  and  C_41 
REMARK   14  A    between atoms: O_16  and  C_43 
REMARK   15  A    between atoms: C_17  and  C_26 
REMARK   16  A    between atoms: C_30  and  C_33 
ROOT
HETATM    1  O   UNK N   1      79.870  24.364  -6.108  0.00  0.00    -0.348 OA
HETATM    2  C   UNK N   1      79.233  23.117  -5.953  0.00  0.00     0.180 C 
HETATM    3  C   UNK N   1      78.819  22.574  -7.341  0.00  0.00     0.180 C 
HETATM    4  C   UNK N   1      77.866  23.585  -8.014  0.00  0.00     0.183 C 
HETATM    5  C   UNK N   1      78.546  24.969  -8.046  0.00  0.00     0.205 C 
HETATM    6  C   UNK N   1      79.007  25.361  -6.627  0.00  0.00     0.298 C 
ENDROOT
BRANCH   6   7
HETATM    7  O   UNK N   1      79.742  26.533  -6.694  0.00  0.00    -0.311 OA
BRANCH   7   8
HETATM    8  C   UNK N   1      79.230  27.723  -6.274  0.00  0.00     0.157 A 
HETATM    9  C   UNK N   1      79.088  27.957  -4.900  0.00  0.00     0.124 A 
HETATM   10  O   UNK N   1      78.489  29.058  -4.462  0.00  0.00    -0.306 OA
HETATM   11  C   UNK N   1      78.002  29.987  -5.277  0.00  0.00     0.096 A 
HETATM   12  C   UNK N   1      78.143  29.862  -6.678  0.00  0.00     0.084 A 
HETATM   13  C   UNK N   1      77.321  31.081  -4.735  0.00  0.00     0.075 A 
HETATM   14  C   UNK N   1      78.779  28.707  -7.179  0.00  0.00     0.223 A 
HETATM   15  C   UNK N   1      77.620  30.874  -7.521  0.00  0.00     0.085 A 
HETATM   16  O   UNK N   1      78.915  28.546  -8.378  0.00  0.00    -0.284 OA
HETATM   17  C   UNK N   1      76.941  31.964  -6.957  0.00  0.00     0.074 A 
HETATM   18  C   UNK N   1      76.781  32.061  -5.569  0.00  0.00     0.071 A 
BRANCH   9  19
HETATM   19  C   UNK N   1      79.485  26.936  -3.919  0.00  0.00     0.004 A 
HETATM   20  C   UNK N   1      78.505  26.180  -3.263  0.00  0.00     0.053 A 
HETATM   21  C   UNK N   1      78.861  25.239  -2.290  0.00  0.00     0.099 A 
HETATM   22  C   UNK N   1      80.233  25.034  -1.989  0.00  0.00     0.098 A 
HETATM   23  C   UNK N   1      81.204  25.785  -2.665  0.00  0.00     0.040 A 
HETATM   24  C   UNK N   1      80.833  26.739  -3.614  0.00  0.00     0.017 A 
BRANCH  21  25
HETATM   25  O   UNK N   1      77.872  24.561  -1.663  0.00  0.00    -0.358 OA
HETATM   26  H   UNK N   1      77.816  23.599  -1.618  0.00  0.00     0.218 HD
ENDBRANCH  21  25
BRANCH  22  27
HETATM   27  O   UNK N   1      80.647  24.139  -1.064  0.00  0.00    -0.358 OA
HETATM   28  H   UNK N   1      80.903  23.230  -1.265  0.00  0.00     0.218 HD
ENDBRANCH  22  27
ENDBRANCH   9  19
BRANCH  15  29
HETATM   29  O   UNK N   1      77.756  30.796  -8.863  0.00  0.00    -0.360 OA
HETATM   30  H   UNK N   1      78.479  31.237  -9.333  0.00  0.00     0.217 HD
ENDBRANCH  15  29
BRANCH  18  31
HETATM   31  O   UNK N   1      76.105  33.095  -5.027  0.00  0.00    -0.361 OA
HETATM   32  H   UNK N   1      75.168  33.025  -4.796  0.00  0.00     0.217 HD
ENDBRANCH  18  31
ENDBRANCH   7   8
ENDBRANCH   6   7
BRANCH   5  33
HETATM   33  O   UNK N   1      77.694  25.943  -8.595  0.00  0.00    -0.388 OA
HETATM   34  H   UNK N   1      76.853  25.940  -8.067  0.00  0.00     0.210 HD
ENDBRANCH   5  33
BRANCH   2  35
HETATM   35  C   UNK N   1      80.235  22.201  -5.241  0.00  0.00     0.205 C 
BRANCH  35  36
HETATM   36  O   UNK N   1      79.525  21.182  -4.563  0.00  0.00    -0.356 OA
BRANCH  36  37
HETATM   37  C   UNK N   1      78.497  21.731  -3.755  0.00  0.00     0.291 C 
HETATM   38  O   UNK N   1      78.872  21.795  -2.380  0.00  0.00    -0.351 OA
HETATM   39  C   UNK N   1      79.153  20.509  -1.837  0.00  0.00     0.152 C 
HETATM   40  C   UNK N   1      77.899  19.600  -1.878  0.00  0.00     0.178 C 
HETATM   41  C   UNK N   1      79.634  20.702  -0.397  0.00  0.00     0.042 C 
HETATM   42  C   UNK N   1      77.410  19.498  -3.334  0.00  0.00     0.183 C 
HETATM   43  C   UNK N   1      77.201  20.906  -3.927  0.00  0.00     0.204 C 
BRANCH  40  44
HETATM   44  O   UNK N   1      78.204  18.311  -1.404  0.00  0.00    -0.390 OA
HETATM   45  H   UNK N   1      77.930  18.274  -0.450  0.00  0.00     0.210 HD
ENDBRANCH  40  44
BRANCH  42  46
HETATM   46  O   UNK N   1      76.251  18.710  -3.446  0.00  0.00    -0.390 OA
HETATM   47  H   UNK N   1      76.511  17.841  -3.849  0.00  0.00     0.210 HD
ENDBRANCH  42  46
BRANCH  43  48
HETATM   48  O   UNK N   1      76.097  21.553  -3.336  0.00  0.00    -0.388 OA
HETATM   49  H   UNK N   1      76.345  21.853  -2.424  0.00  0.00     0.210 HD
ENDBRANCH  43  48
ENDBRANCH  36  37
ENDBRANCH  35  36
ENDBRANCH   2  35
BRANCH   4  50
HETATM   50  O   UNK N   1      77.562  23.182  -9.324  0.00  0.00    -0.390 OA
HETATM   51  H   UNK N   1      76.603  22.927  -9.332  0.00  0.00     0.210 HD
ENDBRANCH   4  50
BRANCH   3  52
HETATM   52  O   UNK N   1      78.219  21.307  -7.237  0.00  0.00    -0.390 OA
HETATM   53  H   UNK N   1      78.348  20.841  -8.105  0.00  0.00     0.210 HD
ENDBRANCH   3  52
TORSDOF 16
ENDMDL
MODEL 2
REMARK VINA RESULT:      -6.1      7.702     11.186
REMARK  16 active torsions:
REMARK  status: ('A' for Active; 'I' for Inactive)
REMARK    1  A    between atoms: O_2  and  C_22 
REMARK    2  A    between atoms: O_2  and  C_26 
REMARK    3  A    between atoms: O_4  and  C_18 
REMARK    4  A    between atoms: O_5  and  C_19 
REMARK    5  A    between atoms: O_6  and  C_25 
REMARK    6  A    between atoms: O_6  and  C_29 
REMARK    7  A    between atoms: O_7  and  C_20 
REMARK    8  A    between atoms: O_8  and  C_21 
REMARK    9  A    between atoms: O_9  and  C_23 
REMARK   10  A    between atoms: O_10  and  C_24 
REMARK   11  A    between atoms: O_13  and  C_35 
REMARK   12  A    between atoms: O_14  and  C_40 
REMARK   13  A    between atoms: O_15  and  C_41 
REMARK   14  A    between atoms: O_16  and  C_43 
REMARK   15  A    between atoms: C_17  and  C_26 
REMARK   16  A    between atoms: C_30  and  C_33 
ROOT
HETATM    1  O   UNK N   1      82.959  26.436   5.614  0.00  0.00    -0.348 OA
HETATM    2  C   UNK N   1      82.623  25.227   6.254  0.00  0.00     0.180 C 
HETATM    3  C   UNK N   1      81.085  25.065   6.276  0.00  0.00     0.180 C 
HETATM    4  C   UNK N   1      80.463  26.261   7.028  0.00  0.00     0.183 C 
HETATM    5  C   UNK N   1      80.959  27.570   6.382  0.00  0.00     0.205 C 
HETATM    6  C   UNK N   1      82.500  27.576   6.321  0.00  0.00     0.298 C 
ENDROOT
BRANCH   6   7
HETATM    7  O   UNK N   1      82.923  28.687   5.609  0.00  0.00    -0.311 OA
BRANCH   7   8
HETATM    8  C   UNK N   1      83.716  28.571   4.507  0.00  0.00     0.157 A 
HETATM    9  C   UNK N   1      83.117  28.474   3.244  0.00  0.00     0.124 A 
HETATM   10  O   UNK N   1      83.855  28.247   2.164  0.00  0.00    -0.306 OA
HETATM   11  C   UNK N   1      85.175  28.104   2.209  0.00  0.00     0.096 A 
HETATM   12  C   UNK N   1      85.873  28.234   3.432  0.00  0.00     0.084 A 
HETATM   13  C   UNK N   1      85.868  27.793   1.036  0.00  0.00     0.075 A 
HETATM   14  C   UNK N   1      85.121  28.481   4.599  0.00  0.00     0.223 A 
HETATM   15  C   UNK N   1      87.282  28.083   3.447  0.00  0.00     0.085 A 
HETATM   16  O   UNK N   1      85.673  28.590   5.680  0.00  0.00    -0.284 OA
HETATM   17  C   UNK N   1      87.958  27.773   2.258  0.00  0.00     0.074 A 
HETATM   18  C   UNK N   1      87.252  27.616   1.058  0.00  0.00     0.071 A 
BRANCH   9  19
HETATM   19  C   UNK N   1      81.654  28.499   3.102  0.00  0.00     0.004 A 
HETATM   20  C   UNK N   1      80.975  27.349   2.680  0.00  0.00     0.053 A 
HETATM   21  C   UNK N   1      79.587  27.368   2.492  0.00  0.00     0.099 A 
HETATM   22  C   UNK N   1      78.864  28.560   2.758  0.00  0.00     0.098 A 
HETATM   23  C   UNK N   1      79.555  29.698   3.196  0.00  0.00     0.040 A 
HETATM   24  C   UNK N   1      80.941  29.673   3.355  0.00  0.00     0.017 A 
BRANCH  21  25
HETATM   25  O   UNK N   1      78.986  26.239   2.050  0.00  0.00    -0.358 OA
HETATM   26  H   UNK N   1      78.377  26.204   1.303  0.00  0.00     0.218 HD
ENDBRANCH  21  25
BRANCH  22  27
HETATM   27  O   UNK N   1      77.524  28.647   2.602  0.00  0.00    -0.358 OA
HETATM   28  H   UNK N   1      76.964  27.917   2.311  0.00  0.00     0.218 HD
ENDBRANCH  22  27
ENDBRANCH   9  19
BRANCH  15  29
HETATM   29  O   UNK N   1      87.981  28.223   4.595  0.00  0.00    -0.360 OA
HETATM   30  H   UNK N   1      87.718  27.777   5.413  0.00  0.00     0.217 HD
ENDBRANCH  15  29
BRANCH  18  31
HETATM   31  O   UNK N   1      87.899  27.291  -0.081  0.00  0.00    -0.361 OA
HETATM   32  H   UNK N   1      88.341  26.437  -0.188  0.00  0.00     0.217 HD
ENDBRANCH  18  31
ENDBRANCH   7   8
ENDBRANCH   6   7
BRANCH   5  33
HETATM   33  O   UNK N   1      80.469  28.696   7.069  0.00  0.00    -0.388 OA
HETATM   34  H   UNK N   1      79.481  28.707   6.960  0.00  0.00     0.210 HD
ENDBRANCH   5  33
BRANCH   2  35
HETATM   35  C   UNK N   1      83.318  24.110   5.466  0.00  0.00     0.205 C 
BRANCH  35  36
HETATM   36  O   UNK N   1      82.341  23.371   4.758  0.00  0.00    -0.356 OA
BRANCH  36  37
HETATM   37  C   UNK N   1      82.942  22.563   3.759  0.00  0.00     0.291 C 
HETATM   38  O   UNK N   1      83.495  23.342   2.700  0.00  0.00    -0.351 OA
HETATM   39  C   UNK N   1      82.508  24.123   2.032  0.00  0.00     0.152 C 
HETATM   40  C   UNK N   1      81.442  23.220   1.363  0.00  0.00     0.178 C 
HETATM   41  C   UNK N   1      83.221  24.985   0.986  0.00  0.00     0.042 C 
HETATM   42  C   UNK N   1      80.809  22.322   2.440  0.00  0.00     0.183 C 
HETATM   43  C   UNK N   1      81.905  21.556   3.209  0.00  0.00     0.204 C 
BRANCH  40  44
HETATM   44  O   UNK N   1      80.435  24.001   0.766  0.00  0.00    -0.390 OA
HETATM   45  H   UNK N   1      79.914  23.404   0.167  0.00  0.00     0.210 HD
ENDBRANCH  40  44
BRANCH  42  46
HETATM   46  O   UNK N   1      79.848  21.449   1.900  0.00  0.00    -0.390 OA
HETATM   47  H   UNK N   1      80.076  20.527   2.191  0.00  0.00     0.210 HD
ENDBRANCH  42  46
BRANCH  43  48
HETATM   48  O   UNK N   1      82.516  20.581   2.396  0.00  0.00    -0.388 OA
HETATM   49  H   UNK N   1      83.093  21.030   1.727  0.00  0.00     0.210 HD
ENDBRANCH  43  48
ENDBRANCH  36  37
ENDBRANCH  35  36
ENDBRANCH   2  35
BRANCH   4  50
HETATM   50  O   UNK N   1      79.062  26.210   6.967  0.00  0.00    -0.390 OA
HETATM   51  H   UNK N   1      78.790  25.327   7.330  0.00  0.00     0.210 HD
ENDBRANCH   4  50
BRANCH   3  52
HETATM   52  O   UNK N   1      80.707  23.846   6.866  0.00  0.00    -0.390 OA
HETATM   53  H   UNK N   1      79.798  23.966   7.246  0.00  0.00     0.210 HD
ENDBRANCH   3  52
TORSDOF 16
ENDMDL
MODEL 3
REMARK VINA RESULT:      -6.0      0.951      1.605
REMARK  16 active torsions:
REMARK  status: ('A' for Active; 'I' for Inactive)
REMARK    1  A    between atoms: O_2  and  C_22 
REMARK    2  A    between atoms: O_2  and  C_26 
REMARK    3  A    between atoms: O_4  and  C_18 
REMARK    4  A    between atoms: O_5  and  C_19 
REMARK    5  A    between atoms: O_6  and  C_25 
REMARK    6  A    between atoms: O_6  and  C_29 
REMARK    7  A    between atoms: O_7  and  C_20 
REMARK    8  A    between atoms: O_8  and  C_21 
REMARK    9  A    between atoms: O_9  and  C_23 
REMARK   10  A    between atoms: O_10  and  C_24 
REMARK   11  A    between atoms: O_13  and  C_35 
REMARK   12  A    between atoms: O_14  and  C_40 
REMARK   13  A    between atoms: O_15  and  C_41 
REMARK   14  A    between atoms: O_16  and  C_43 
REMARK   15  A    between atoms: C_17  and  C_26 
REMARK   16  A    between atoms: C_30  and  C_33 
ROOT
HETATM    1  O   UNK N   1      79.723  24.420  -6.626  0.00  0.00    -0.348 OA
HETATM    2  C   UNK N   1      79.026  23.196  -6.627  0.00  0.00     0.180 C 
HETATM    3  C   UNK N   1      78.729  22.772  -8.084  0.00  0.00     0.180 C 
HETATM    4  C   UNK N   1      77.886  23.871  -8.767  0.00  0.00     0.183 C 
HETATM    5  C   UNK N   1      78.619  25.221  -8.631  0.00  0.00     0.205 C 
HETATM    6  C   UNK N   1      78.954  25.490  -7.149  0.00  0.00     0.298 C 
ENDROOT
BRANCH   6   7
HETATM    7  O   UNK N   1      79.737  26.629  -7.059  0.00  0.00    -0.311 OA
BRANCH   7   8
HETATM    8  C   UNK N   1      79.244  27.799  -6.567  0.00  0.00     0.157 A 
HETATM    9  C   UNK N   1      79.116  27.956  -5.180  0.00  0.00     0.124 A 
HETATM   10  O   UNK N   1      78.534  29.038  -4.675  0.00  0.00    -0.306 OA
HETATM   11  C   UNK N   1      78.052  30.017  -5.432  0.00  0.00     0.096 A 
HETATM   12  C   UNK N   1      78.179  29.971  -6.839  0.00  0.00     0.084 A 
HETATM   13  C   UNK N   1      77.389  31.086  -4.822  0.00  0.00     0.075 A 
HETATM   14  C   UNK N   1      78.796  28.838  -7.410  0.00  0.00     0.223 A 
HETATM   15  C   UNK N   1      77.662  31.034  -7.619  0.00  0.00     0.085 A 
HETATM   16  O   UNK N   1      78.921  28.744  -8.618  0.00  0.00    -0.284 OA
HETATM   17  C   UNK N   1      77.001  32.098  -6.987  0.00  0.00     0.074 A 
HETATM   18  C   UNK N   1      76.854  32.119  -5.594  0.00  0.00     0.071 A 
BRANCH   9  19
HETATM   19  C   UNK N   1      79.508  26.876  -4.262  0.00  0.00     0.004 A 
HETATM   20  C   UNK N   1      78.525  26.144  -3.586  0.00  0.00     0.053 A 
HETATM   21  C   UNK N   1      78.881  25.145  -2.671  0.00  0.00     0.099 A 
HETATM   22  C   UNK N   1      80.254  24.860  -2.451  0.00  0.00     0.098 A 
HETATM   23  C   UNK N   1      81.227  25.589  -3.147  0.00  0.00     0.040 A 
HETATM   24  C   UNK N   1      80.859  26.599  -4.038  0.00  0.00     0.017 A 
BRANCH  21  25
HETATM   25  O   UNK N   1      77.892  24.492  -2.020  0.00  0.00    -0.358 OA
HETATM   26  H   UNK N   1      77.152  24.927  -1.579  0.00  0.00     0.218 HD
ENDBRANCH  21  25
BRANCH  22  27
HETATM   27  O   UNK N   1      80.668  23.907  -1.585  0.00  0.00    -0.358 OA
HETATM   28  H   UNK N   1      81.564  23.847  -1.232  0.00  0.00     0.218 HD
ENDBRANCH  22  27
ENDBRANCH   9  19
BRANCH  15  29
HETATM   29  O   UNK N   1      77.786  31.031  -8.964  0.00  0.00    -0.360 OA
HETATM   30  H   UNK N   1      78.439  30.480  -9.418  0.00  0.00     0.217 HD
ENDBRANCH  15  29
BRANCH  18  31
HETATM   31  O   UNK N   1      76.195  33.128  -4.988  0.00  0.00    -0.361 OA
HETATM   32  H   UNK N   1      76.656  33.913  -4.660  0.00  0.00     0.217 HD
ENDBRANCH  18  31
ENDBRANCH   7   8
ENDBRANCH   6   7
BRANCH   5  33
HETATM   33  O   UNK N   1      77.864  26.270  -9.184  0.00  0.00    -0.388 OA
HETATM   34  H   UNK N   1      77.304  26.652  -8.458  0.00  0.00     0.210 HD
ENDBRANCH   5  33
BRANCH   2  35
HETATM   35  C   UNK N   1      79.917  22.187  -5.894  0.00  0.00     0.205 C 
BRANCH  35  36
HETATM   36  O   UNK N   1      79.119  21.104  -5.454  0.00  0.00    -0.356 OA
BRANCH  36  37
HETATM   37  C   UNK N   1      79.717  20.449  -4.349  0.00  0.00     0.291 C 
HETATM   38  O   UNK N   1      79.340  19.075  -4.270  0.00  0.00    -0.351 OA
HETATM   39  C   UNK N   1      77.934  18.909  -4.110  0.00  0.00     0.152 C 
HETATM   40  C   UNK N   1      77.445  19.544  -2.785  0.00  0.00     0.178 C 
HETATM   41  C   UNK N   1      77.633  17.408  -4.135  0.00  0.00     0.042 C 
HETATM   42  C   UNK N   1      77.838  21.032  -2.776  0.00  0.00     0.183 C 
HETATM   43  C   UNK N   1      79.348  21.188  -3.041  0.00  0.00     0.204 C 
BRANCH  40  44
HETATM   44  O   UNK N   1      76.047  19.437  -2.670  0.00  0.00    -0.390 OA
HETATM   45  H   UNK N   1      75.679  19.366  -3.591  0.00  0.00     0.210 HD
ENDBRANCH  40  44
BRANCH  42  46
HETATM   46  O   UNK N   1      77.451  21.671  -1.585  0.00  0.00    -0.390 OA
HETATM   47  H   UNK N   1      76.668  22.248  -1.788  0.00  0.00     0.210 HD
ENDBRANCH  42  46
BRANCH  43  48
HETATM   48  O   UNK N   1      80.112  20.721  -1.953  0.00  0.00    -0.388 OA
HETATM   49  H   UNK N   1      80.540  19.861  -2.201  0.00  0.00     0.210 HD
ENDBRANCH  43  48
ENDBRANCH  36  37
ENDBRANCH  35  36
ENDBRANCH   2  35
BRANCH   4  50
HETATM   50  O   UNK N   1      77.697  23.577 -10.127  0.00  0.00    -0.390 OA
HETATM   51  H   UNK N   1      77.081  24.266 -10.487  0.00  0.00     0.210 HD
ENDBRANCH   4  50
BRANCH   3  52
HETATM   52  O   UNK N   1      78.072  21.530  -8.133  0.00  0.00    -0.390 OA
HETATM   53  H   UNK N   1      78.153  21.113  -7.235  0.00  0.00     0.210 HD
ENDBRANCH   3  52
TORSDOF 16
ENDMDL
MODEL 4
REMARK VINA RESULT:      -6.0      8.209     11.605
REMARK  16 active torsions:
REMARK  status: ('A' for Active; 'I' for Inactive)
REMARK    1  A    between atoms: O_2  and  C_22 
REMARK    2  A    between atoms: O_2  and  C_26 
REMARK    3  A    between atoms: O_4  and  C_18 
REMARK    4  A    between atoms: O_5  and  C_19 
REMARK    5  A    between atoms: O_6  and  C_25 
REMARK    6  A    between atoms: O_6  and  C_29 
REMARK    7  A    between atoms: O_7  and  C_20 
REMARK    8  A    between atoms: O_8  and  C_21 
REMARK    9  A    between atoms: O_9  and  C_23 
REMARK   10  A    between atoms: O_10  and  C_24 
REMARK   11  A    between atoms: O_13  and  C_35 
REMARK   12  A    between atoms: O_14  and  C_40 
REMARK   13  A    between atoms: O_15  and  C_41 
REMARK   14  A    between atoms: O_16  and  C_43 
REMARK   15  A    between atoms: C_17  and  C_26 
REMARK   16  A    between atoms: C_30  and  C_33 
ROOT
HETATM    1  O   UNK N   1      83.456  23.709   5.498  0.00  0.00    -0.348 OA
HETATM    2  C   UNK N   1      84.385  22.952   4.759  0.00  0.00     0.180 C 
HETATM    3  C   UNK N   1      85.764  23.003   5.457  0.00  0.00     0.180 C 
HETATM    4  C   UNK N   1      86.225  24.473   5.556  0.00  0.00     0.183 C 
HETATM    5  C   UNK N   1      85.124  25.297   6.254  0.00  0.00     0.205 C 
HETATM    6  C   UNK N   1      83.775  25.089   5.534  0.00  0.00     0.298 C 
ENDROOT
BRANCH   6   7
HETATM    7  O   UNK N   1      82.773  25.715   6.255  0.00  0.00    -0.311 OA
BRANCH   7   8
HETATM    8  C   UNK N   1      82.003  26.697   5.707  0.00  0.00     0.157 A 
HETATM    9  C   UNK N   1      81.842  27.904   6.401  0.00  0.00     0.124 A 
HETATM   10  O   UNK N   1      81.009  28.835   5.949  0.00  0.00    -0.306 OA
HETATM   11  C   UNK N   1      80.296  28.686   4.838  0.00  0.00     0.096 A 
HETATM   12  C   UNK N   1      80.429  27.524   4.045  0.00  0.00     0.084 A 
HETATM   13  C   UNK N   1      79.388  29.684   4.473  0.00  0.00     0.075 A 
HETATM   14  C   UNK N   1      81.309  26.516   4.492  0.00  0.00     0.223 A 
HETATM   15  C   UNK N   1      79.661  27.398   2.861  0.00  0.00     0.085 A 
HETATM   16  O   UNK N   1      81.452  25.489   3.852  0.00  0.00    -0.284 OA
HETATM   17  C   UNK N   1      78.756  28.412   2.512  0.00  0.00     0.074 A 
HETATM   18  C   UNK N   1      78.611  29.546   3.322  0.00  0.00     0.071 A 
BRANCH   9  19
HETATM   19  C   UNK N   1      82.493  28.116   7.701  0.00  0.00     0.004 A 
HETATM   20  C   UNK N   1      81.894  27.629   8.869  0.00  0.00     0.053 A 
HETATM   21  C   UNK N   1      82.474  27.864  10.122  0.00  0.00     0.099 A 
HETATM   22  C   UNK N   1      83.696  28.582  10.199  0.00  0.00     0.098 A 
HETATM   23  C   UNK N   1      84.294  29.048   9.021  0.00  0.00     0.040 A 
HETATM   24  C   UNK N   1      83.691  28.829   7.781  0.00  0.00     0.017 A 
BRANCH  21  25
HETATM   25  O   UNK N   1      81.835  27.400  11.220  0.00  0.00    -0.358 OA
HETATM   26  H   UNK N   1      81.174  26.697  11.209  0.00  0.00     0.218 HD
ENDBRANCH  21  25
BRANCH  22  27
HETATM   27  O   UNK N   1      84.313  28.841  11.375  0.00  0.00    -0.358 OA
HETATM   28  H   UNK N   1      83.859  29.149  12.169  0.00  0.00     0.218 HD
ENDBRANCH  22  27
ENDBRANCH   9  19
BRANCH  15  29
HETATM   29  O   UNK N   1      79.780  26.309   2.071  0.00  0.00    -0.360 OA
HETATM   30  H   UNK N   1      80.327  26.312   1.272  0.00  0.00     0.217 HD
ENDBRANCH  15  29
BRANCH  18  31
HETATM   31  O   UNK N   1      77.721  30.508   3.001  0.00  0.00    -0.361 OA
HETATM   32  H   UNK N   1      77.292  31.050   3.678  0.00  0.00     0.217 HD
ENDBRANCH  18  31
ENDBRANCH   7   8
ENDBRANCH   6   7
BRANCH   5  33
HETATM   33  O   UNK N   1      85.467  26.659   6.316  0.00  0.00    -0.388 OA
HETATM   34  H   UNK N   1      85.033  27.042   7.123  0.00  0.00     0.210 HD
ENDBRANCH   5  33
BRANCH   2  35
HETATM   35  C   UNK N   1      83.822  21.528   4.678  0.00  0.00     0.205 C 
BRANCH  35  36
HETATM   36  O   UNK N   1      83.539  21.222   3.325  0.00  0.00    -0.356 OA
BRANCH  36  37
HETATM   37  C   UNK N   1      83.122  19.875   3.187  0.00  0.00     0.291 C 
HETATM   38  O   UNK N   1      82.788  19.552   1.838  0.00  0.00    -0.351 OA
HETATM   39  C   UNK N   1      81.715  20.347   1.343  0.00  0.00     0.152 C 
HETATM   40  C   UNK N   1      80.419  20.103   2.155  0.00  0.00     0.178 C 
HETATM   41  C   UNK N   1      81.506  19.988  -0.131  0.00  0.00     0.042 C 
HETATM   42  C   UNK N   1      80.702  20.405   3.637  0.00  0.00     0.183 C 
HETATM   43  C   UNK N   1      81.923  19.600   4.123  0.00  0.00     0.204 C 
BRANCH  40  44
HETATM   44  O   UNK N   1      79.385  20.943   1.703  0.00  0.00    -0.390 OA
HETATM   45  H   UNK N   1      78.579  20.377   1.576  0.00  0.00     0.210 HD
ENDBRANCH  40  44
BRANCH  42  46
HETATM   46  O   UNK N   1      79.574  20.176   4.445  0.00  0.00    -0.390 OA
HETATM   47  H   UNK N   1      78.781  20.113   3.851  0.00  0.00     0.210 HD
ENDBRANCH  42  46
BRANCH  43  48
HETATM   48  O   UNK N   1      81.634  18.222   4.199  0.00  0.00    -0.388 OA
HETATM   49  H   UNK N   1      81.560  17.855   3.281  0.00  0.00     0.210 HD
ENDBRANCH  43  48
ENDBRANCH  36  37
ENDBRANCH  35  36
ENDBRANCH   2  35
BRANCH   4  50
HETATM   50  O   UNK N   1      87.418  24.570   6.290  0.00  0.00    -0.390 OA
HETATM   51  H   UNK N   1      88.125  24.855   5.654  0.00  0.00     0.210 HD
ENDBRANCH   4  50
BRANCH   3  52
HETATM   52  O   UNK N   1      86.713  22.221   4.775  0.00  0.00    -0.390 OA
HETATM   53  H   UNK N   1      87.612  22.495   5.094  0.00  0.00     0.210 HD
ENDBRANCH   3  52
TORSDOF 16
ENDMDL
MODEL 5
REMARK VINA RESULT:      -6.0      7.452     13.537
REMARK  16 active torsions:
REMARK  status: ('A' for Active; 'I' for Inactive)
REMARK    1  A    between atoms: O_2  and  C_22 
REMARK    2  A    between atoms: O_2  and  C_26 
REMARK    3  A    between atoms: O_4  and  C_18 
REMARK    4  A    between atoms: O_5  and  C_19 
REMARK    5  A    between atoms: O_6  and  C_25 
REMARK    6  A    between atoms: O_6  and  C_29 
REMARK    7  A    between atoms: O_7  and  C_20 
REMARK    8  A    between atoms: O_8  and  C_21 
REMARK    9  A    between atoms: O_9  and  C_23 
REMARK   10  A    between atoms: O_10  and  C_24 
REMARK   11  A    between atoms: O_13  and  C_35 
REMARK   12  A    between atoms: O_14  and  C_40 
REMARK   13  A    between atoms: O_15  and  C_41 
REMARK   14  A    between atoms: O_16  and  C_43 
REMARK   15  A    between atoms: C_17  and  C_26 
REMARK   16  A    between atoms: C_30  and  C_33 
ROOT
HETATM    1  O   UNK N   1      82.939  25.184   4.965  0.00  0.00    -0.348 OA
HETATM    2  C   UNK N   1      82.357  26.014   5.943  0.00  0.00     0.180 C 
HETATM    3  C   UNK N   1      83.368  27.109   6.356  0.00  0.00     0.180 C 
HETATM    4  C   UNK N   1      84.642  26.437   6.911  0.00  0.00     0.183 C 
HETATM    5  C   UNK N   1      85.175  25.437   5.865  0.00  0.00     0.205 C 
HETATM    6  C   UNK N   1      84.055  24.459   5.452  0.00  0.00     0.298 C 
ENDROOT
BRANCH   6   7
HETATM    7  O   UNK N   1      84.504  23.665   4.411  0.00  0.00    -0.311 OA
BRANCH   7   8
HETATM    8  C   UNK N   1      84.305  22.317   4.401  0.00  0.00     0.157 A 
HETATM    9  C   UNK N   1      83.406  21.768   3.477  0.00  0.00     0.124 A 
HETATM   10  O   UNK N   1      83.105  20.475   3.516  0.00  0.00    -0.306 OA
HETATM   11  C   UNK N   1      83.625  19.641   4.410  0.00  0.00     0.096 A 
HETATM   12  C   UNK N   1      84.578  20.093   5.350  0.00  0.00     0.084 A 
HETATM   13  C   UNK N   1      83.198  18.310   4.429  0.00  0.00     0.075 A 
HETATM   14  C   UNK N   1      84.926  21.460   5.334  0.00  0.00     0.223 A 
HETATM   15  C   UNK N   1      85.121  19.178   6.285  0.00  0.00     0.085 A 
HETATM   16  O   UNK N   1      85.734  21.904   6.131  0.00  0.00    -0.284 OA
HETATM   17  C   UNK N   1      84.679  17.846   6.286  0.00  0.00     0.074 A 
HETATM   18  C   UNK N   1      83.712  17.416   5.369  0.00  0.00     0.071 A 
BRANCH   9  19
HETATM   19  C   UNK N   1      82.686  22.628   2.526  0.00  0.00     0.004 A 
HETATM   20  C   UNK N   1      83.309  23.030   1.339  0.00  0.00     0.053 A 
HETATM   21  C   UNK N   1      82.657  23.889   0.445  0.00  0.00     0.099 A 
HETATM   22  C   UNK N   1      81.341  24.332   0.740  0.00  0.00     0.098 A 
HETATM   23  C   UNK N   1      80.723  23.908   1.924  0.00  0.00     0.040 A 
HETATM   24  C   UNK N   1      81.394  23.072   2.818  0.00  0.00     0.017 A 
BRANCH  21  25
HETATM   25  O   UNK N   1      83.318  24.273  -0.671  0.00  0.00    -0.358 OA
HETATM   26  H   UNK N   1      84.164  24.737  -0.668  0.00  0.00     0.218 HD
ENDBRANCH  21  25
BRANCH  22  27
HETATM   27  O   UNK N   1      80.652  25.158  -0.080  0.00  0.00    -0.358 OA
HETATM   28  H   UNK N   1      81.059  25.835  -0.633  0.00  0.00     0.218 HD
ENDBRANCH  22  27
ENDBRANCH   9  19
BRANCH  15  29
HETATM   29  O   UNK N   1      86.049  19.573   7.184  0.00  0.00    -0.360 OA
HETATM   30  H   UNK N   1      86.464  18.952   7.800  0.00  0.00     0.217 HD
ENDBRANCH  15  29
BRANCH  18  31
HETATM   31  O   UNK N   1      83.267  16.142   5.388  0.00  0.00    -0.361 OA
HETATM   32  H   UNK N   1      83.506  15.510   4.695  0.00  0.00     0.217 HD
ENDBRANCH  18  31
ENDBRANCH   7   8
ENDBRANCH   6   7
BRANCH   5  33
HETATM   33  O   UNK N   1      86.304  24.749   6.344  0.00  0.00    -0.388 OA
HETATM   34  H   UNK N   1      86.174  23.784   6.147  0.00  0.00     0.210 HD
ENDBRANCH   5  33
BRANCH   2  35
HETATM   35  C   UNK N   1      81.084  26.597   5.319  0.00  0.00     0.205 C 
BRANCH  35  36
HETATM   36  O   UNK N   1      81.401  27.825   4.691  0.00  0.00    -0.356 OA
BRANCH  36  37
HETATM   37  C   UNK N   1      81.072  27.790   3.313  0.00  0.00     0.291 C 
HETATM   38  O   UNK N   1      81.235  29.063   2.689  0.00  0.00    -0.351 OA
HETATM   39  C   UNK N   1      80.395  30.058   3.267  0.00  0.00     0.152 C 
HETATM   40  C   UNK N   1      78.899  29.700   3.085  0.00  0.00     0.178 C 
HETATM   41  C   UNK N   1      80.718  31.394   2.593  0.00  0.00     0.042 C 
HETATM   42  C   UNK N   1      78.642  28.318   3.711  0.00  0.00     0.183 C 
HETATM   43  C   UNK N   1      79.623  27.279   3.134  0.00  0.00     0.204 C 
BRANCH  40  44
HETATM   44  O   UNK N   1      78.080  30.653   3.719  0.00  0.00    -0.390 OA
HETATM   45  H   UNK N   1      78.605  31.493   3.790  0.00  0.00     0.210 HD
ENDBRANCH  40  44
BRANCH  42  46
HETATM   46  O   UNK N   1      77.305  27.911   3.557  0.00  0.00    -0.390 OA
HETATM   47  H   UNK N   1      77.253  27.333   2.751  0.00  0.00     0.210 HD
ENDBRANCH  42  46
BRANCH  43  48
HETATM   48  O   UNK N   1      79.340  26.998   1.782  0.00  0.00    -0.388 OA
HETATM   49  H   UNK N   1      78.357  26.949   1.660  0.00  0.00     0.210 HD
ENDBRANCH  43  48
ENDBRANCH  36  37
ENDBRANCH  35  36
ENDBRANCH   2  35
BRANCH   4  50
HETATM   50  O   UNK N   1      85.628  27.397   7.186  0.00  0.00    -0.390 OA
HETATM   51  H   UNK N   1      85.751  27.929   6.358  0.00  0.00     0.210 HD
ENDBRANCH   4  50
BRANCH   3  52
HETATM   52  O   UNK N   1      82.811  27.990   7.300  0.00  0.00    -0.390 OA
HETATM   53  H   UNK N   1      82.181  28.587   6.818  0.00  0.00     0.210 HD
ENDBRANCH   3  52
TORSDOF 16
ENDMDL
MODEL 6
REMARK VINA RESULT:      -6.0      7.305     12.934
REMARK  16 active torsions:
REMARK  status: ('A' for Active; 'I' for Inactive)
REMARK    1  A    between atoms: O_2  and  C_22 
REMARK    2  A    between atoms: O_2  and  C_26 
REMARK    3  A    between atoms: O_4  and  C_18 
REMARK    4  A    between atoms: O_5  and  C_19 
REMARK    5  A    between atoms: O_6  and  C_25 
REMARK    6  A    between atoms: O_6  and  C_29 
REMARK    7  A    between atoms: O_7  and  C_20 
REMARK    8  A    between atoms: O_8  and  C_21 
REMARK    9  A    between atoms: O_9  and  C_23 
REMARK   10  A    between atoms: O_10  and  C_24 
REMARK   11  A    between atoms: O_13  and  C_35 
REMARK   12  A    between atoms: O_14  and  C_40 
REMARK   13  A    between atoms: O_15  and  C_41 
REMARK   14  A    between atoms: O_16  and  C_43 
REMARK   15  A    between atoms: C_17  and  C_26 
REMARK   16  A    between atoms: C_30  and  C_33 
ROOT
HETATM    1  O   UNK N   1      78.839  35.473  -1.525  0.00  0.00    -0.348 OA
HETATM    2  C   UNK N   1      80.063  35.376  -2.216  0.00  0.00     0.180 C 
HETATM    3  C   UNK N   1      80.845  34.141  -1.710  0.00  0.00     0.180 C 
HETATM    4  C   UNK N   1      81.093  34.289  -0.193  0.00  0.00     0.183 C 
HETATM    5  C   UNK N   1      79.744  34.526   0.514  0.00  0.00     0.205 C 
HETATM    6  C   UNK N   1      79.008  35.714  -0.139  0.00  0.00     0.298 C 
ENDROOT
BRANCH   6   7
HETATM    7  O   UNK N   1      77.740  35.821   0.407  0.00  0.00    -0.311 OA
BRANCH   7   8
HETATM    8  C   UNK N   1      77.313  36.970   1.003  0.00  0.00     0.157 A 
HETATM    9  C   UNK N   1      76.687  37.950   0.222  0.00  0.00     0.124 A 
HETATM   10  O   UNK N   1      76.361  39.125   0.749  0.00  0.00    -0.306 OA
HETATM   11  C   UNK N   1      76.599  39.436   2.019  0.00  0.00     0.096 A 
HETATM   12  C   UNK N   1      77.182  38.494   2.896  0.00  0.00     0.084 A 
HETATM   13  C   UNK N   1      76.292  40.722   2.474  0.00  0.00     0.075 A 
HETATM   14  C   UNK N   1      77.536  37.233   2.371  0.00  0.00     0.223 A 
HETATM   15  C   UNK N   1      77.415  38.853   4.246  0.00  0.00     0.085 A 
HETATM   16  O   UNK N   1      78.051  36.389   3.082  0.00  0.00    -0.284 OA
HETATM   17  C   UNK N   1      77.098  40.147   4.683  0.00  0.00     0.074 A 
HETATM   18  C   UNK N   1      76.549  41.083   3.797  0.00  0.00     0.071 A 
BRANCH   9  19
HETATM   19  C   UNK N   1      76.489  37.749  -1.221  0.00  0.00     0.004 A 
HETATM   20  C   UNK N   1      75.499  36.869  -1.674  0.00  0.00     0.053 A 
HETATM   21  C   UNK N   1      75.329  36.627  -3.042  0.00  0.00     0.099 A 
HETATM   22  C   UNK N   1      76.156  37.306  -3.977  0.00  0.00     0.098 A 
HETATM   23  C   UNK N   1      77.131  38.197  -3.510  0.00  0.00     0.040 A 
HETATM   24  C   UNK N   1      77.306  38.409  -2.141  0.00  0.00     0.017 A 
BRANCH  21  25
HETATM   25  O   UNK N   1      74.381  35.741  -3.423  0.00  0.00    -0.358 OA
HETATM   26  H   UNK N   1      73.784  35.289  -2.815  0.00  0.00     0.218 HD
ENDBRANCH  21  25
BRANCH  22  27
HETATM   27  O   UNK N   1      76.043  37.123  -5.312  0.00  0.00    -0.358 OA
HETATM   28  H   UNK N   1      76.396  37.730  -5.974  0.00  0.00     0.218 HD
ENDBRANCH  22  27
ENDBRANCH   9  19
BRANCH  15  29
HETATM   29  O   UNK N   1      77.951  37.968   5.116  0.00  0.00    -0.360 OA
HETATM   30  H   UNK N   1      78.691  38.201   5.694  0.00  0.00     0.217 HD
ENDBRANCH  15  29
BRANCH  18  31
HETATM   31  O   UNK N   1      76.270  42.337   4.211  0.00  0.00    -0.361 OA
HETATM   32  H   UNK N   1      76.752  42.752   4.940  0.00  0.00     0.217 HD
ENDBRANCH  18  31
ENDBRANCH   7   8
ENDBRANCH   6   7
BRANCH   5  33
HETATM   33  O   UNK N   1      79.919  34.728   1.895  0.00  0.00    -0.388 OA
HETATM   34  H   UNK N   1      79.201  35.343   2.202  0.00  0.00     0.210 HD
ENDBRANCH   5  33
BRANCH   2  35
HETATM   35  C   UNK N   1      79.716  35.279  -3.706  0.00  0.00     0.205 C 
BRANCH  35  36
HETATM   36  O   UNK N   1      79.762  33.921  -4.101  0.00  0.00    -0.356 OA
BRANCH  36  37
HETATM   37  C   UNK N   1      78.475  33.330  -4.036  0.00  0.00     0.291 C 
HETATM   38  O   UNK N   1      78.523  31.916  -4.214  0.00  0.00    -0.351 OA
HETATM   39  C   UNK N   1      79.059  31.549  -5.482  0.00  0.00     0.152 C 
HETATM   40  C   UNK N   1      78.172  32.077  -6.636  0.00  0.00     0.178 C 
HETATM   41  C   UNK N   1      79.155  30.022  -5.527  0.00  0.00     0.042 C 
HETATM   42  C   UNK N   1      78.045  33.605  -6.503  0.00  0.00     0.183 C 
HETATM   43  C   UNK N   1      77.549  33.979  -5.092  0.00  0.00     0.204 C 
BRANCH  40  44
HETATM   44  O   UNK N   1      78.746  31.770  -7.883  0.00  0.00    -0.390 OA
HETATM   45  H   UNK N   1      79.714  31.609  -7.731  0.00  0.00     0.210 HD
ENDBRANCH  40  44
BRANCH  42  46
HETATM   46  O   UNK N   1      77.225  34.154  -7.503  0.00  0.00    -0.390 OA
HETATM   47  H   UNK N   1      77.400  35.131  -7.540  0.00  0.00     0.210 HD
ENDBRANCH  42  46
BRANCH  43  48
HETATM   48  O   UNK N   1      76.205  33.598  -4.901  0.00  0.00    -0.388 OA
HETATM   49  H   UNK N   1      76.163  32.893  -4.206  0.00  0.00     0.210 HD
ENDBRANCH  43  48
ENDBRANCH  36  37
ENDBRANCH  35  36
ENDBRANCH   2  35
BRANCH   4  50
HETATM   50  O   UNK N   1      81.697  33.132   0.325  0.00  0.00    -0.390 OA
HETATM   51  H   UNK N   1      82.669  33.320   0.391  0.00  0.00     0.210 HD
ENDBRANCH   4  50
BRANCH   3  52
HETATM   52  O   UNK N   1      82.056  33.981  -2.406  0.00  0.00    -0.390 OA
HETATM   53  H   UNK N   1      82.758  34.472  -1.904  0.00  0.00     0.210 HD
ENDBRANCH   3  52
TORSDOF 16
ENDMDL
MODEL 7
REMARK VINA RESULT:      -5.9      8.233     12.651
REMARK  16 active torsions:
REMARK  status: ('A' for Active; 'I' for Inactive)
REMARK    1  A    between atoms: O_2  and  C_22 
REMARK    2  A    between atoms: O_2  and  C_26 
REMARK    3  A    between atoms: O_4  and  C_18 
REMARK    4  A    between atoms: O_5  and  C_19 
REMARK    5  A    between atoms: O_6  and  C_25 
REMARK    6  A    between atoms: O_6  and  C_29 
REMARK    7  A    between atoms: O_7  and  C_20 
REMARK    8  A    between atoms: O_8  and  C_21 
REMARK    9  A    between atoms: O_9  and  C_23 
REMARK   10  A    between atoms: O_10  and  C_24 
REMARK   11  A    between atoms: O_13  and  C_35 
REMARK   12  A    between atoms: O_14  and  C_40 
REMARK   13  A    between atoms: O_15  and  C_41 
REMARK   14  A    between atoms: O_16  and  C_43 
REMARK   15  A    between atoms: C_17  and  C_26 
REMARK   16  A    between atoms: C_30  and  C_33 
ROOT
HETATM    1  O   UNK N   1      82.568  24.556   3.586  0.00  0.00    -0.348 OA
HETATM    2  C   UNK N   1      82.196  24.751   2.241  0.00  0.00     0.180 C 
HETATM    3  C   UNK N   1      80.826  24.082   1.982  0.00  0.00     0.180 C 
HETATM    4  C   UNK N   1      80.934  22.574   2.296  0.00  0.00     0.183 C 
HETATM    5  C   UNK N   1      81.470  22.400   3.732  0.00  0.00     0.205 C 
HETATM    6  C   UNK N   1      82.783  23.192   3.903  0.00  0.00     0.298 C 
ENDROOT
BRANCH   6   7
HETATM    7  O   UNK N   1      83.172  23.145   5.231  0.00  0.00    -0.311 OA
BRANCH   7   8
HETATM    8  C   UNK N   1      83.594  24.259   5.893  0.00  0.00     0.157 A 
HETATM    9  C   UNK N   1      84.950  24.608   5.843  0.00  0.00     0.124 A 
HETATM   10  O   UNK N   1      85.413  25.621   6.567  0.00  0.00    -0.306 OA
HETATM   11  C   UNK N   1      84.638  26.351   7.363  0.00  0.00     0.096 A 
HETATM   12  C   UNK N   1      83.249  26.105   7.441  0.00  0.00     0.084 A 
HETATM   13  C   UNK N   1      85.219  27.352   8.147  0.00  0.00     0.075 A 
HETATM   14  C   UNK N   1      82.722  25.040   6.680  0.00  0.00     0.223 A 
HETATM   15  C   UNK N   1      82.448  26.906   8.292  0.00  0.00     0.085 A 
HETATM   16  O   UNK N   1      81.533  24.779   6.720  0.00  0.00    -0.284 OA
HETATM   17  C   UNK N   1      83.050  27.906   9.070  0.00  0.00     0.074 A 
HETATM   18  C   UNK N   1      84.433  28.121   9.007  0.00  0.00     0.071 A 
BRANCH   9  19
HETATM   19  C   UNK N   1      85.910  23.790   5.088  0.00  0.00     0.004 A 
HETATM   20  C   UNK N   1      86.455  22.639   5.670  0.00  0.00     0.053 A 
HETATM   21  C   UNK N   1      87.408  21.874   4.986  0.00  0.00     0.099 A 
HETATM   22  C   UNK N   1      87.802  22.261   3.677  0.00  0.00     0.098 A 
HETATM   23  C   UNK N   1      87.235  23.405   3.100  0.00  0.00     0.040 A 
HETATM   24  C   UNK N   1      86.305  24.173   3.804  0.00  0.00     0.017 A 
BRANCH  21  25
HETATM   25  O   UNK N   1      87.927  20.792   5.609  0.00  0.00    -0.358 OA
HETATM   26  H   UNK N   1      88.691  20.296   5.290  0.00  0.00     0.218 HD
ENDBRANCH  21  25
BRANCH  22  27
HETATM   27  O   UNK N   1      88.713  21.567   2.958  0.00  0.00    -0.358 OA
HETATM   28  H   UNK N   1      89.194  20.799   3.290  0.00  0.00     0.218 HD
ENDBRANCH  22  27
ENDBRANCH   9  19
BRANCH  15  29
HETATM   29  O   UNK N   1      81.114  26.710   8.373  0.00  0.00    -0.360 OA
HETATM   30  H   UNK N   1      80.543  27.279   8.910  0.00  0.00     0.217 HD
ENDBRANCH  15  29
BRANCH  18  31
HETATM   31  O   UNK N   1      85.016  29.064   9.775  0.00  0.00    -0.361 OA
HETATM   32  H   UNK N   1      85.826  28.886  10.273  0.00  0.00     0.217 HD
ENDBRANCH  18  31
ENDBRANCH   7   8
ENDBRANCH   6   7
BRANCH   5  33
HETATM   33  O   UNK N   1      81.646  21.041   4.050  0.00  0.00    -0.388 OA
HETATM   34  H   UNK N   1      81.470  20.515   3.226  0.00  0.00     0.210 HD
ENDBRANCH   5  33
BRANCH   2  35
HETATM   35  C   UNK N   1      82.160  26.267   2.015  0.00  0.00     0.205 C 
BRANCH  35  36
HETATM   36  O   UNK N   1      81.038  26.805   2.689  0.00  0.00    -0.356 OA
BRANCH  36  37
HETATM   37  C   UNK N   1      81.015  28.219   2.586  0.00  0.00     0.291 C 
HETATM   38  O   UNK N   1      82.053  28.830   3.350  0.00  0.00    -0.351 OA
HETATM   39  C   UNK N   1      81.945  28.537   4.740  0.00  0.00     0.152 C 
HETATM   40  C   UNK N   1      80.623  29.092   5.327  0.00  0.00     0.178 C 
HETATM   41  C   UNK N   1      83.154  29.157   5.446  0.00  0.00     0.042 C 
HETATM   42  C   UNK N   1      79.444  28.499   4.536  0.00  0.00     0.183 C 
HETATM   43  C   UNK N   1      79.631  28.752   3.027  0.00  0.00     0.204 C 
BRANCH  40  44
HETATM   44  O   UNK N   1      80.494  28.737   6.682  0.00  0.00    -0.390 OA
HETATM   45  H   UNK N   1      80.157  27.803   6.712  0.00  0.00     0.210 HD
ENDBRANCH  40  44
BRANCH  42  46
HETATM   46  O   UNK N   1      78.207  28.983   4.994  0.00  0.00    -0.390 OA
HETATM   47  H   UNK N   1      78.329  29.300   5.927  0.00  0.00     0.210 HD
ENDBRANCH  42  46
BRANCH  43  48
HETATM   48  O   UNK N   1      79.482  30.118   2.712  0.00  0.00    -0.388 OA
HETATM   49  H   UNK N   1      78.541  30.290   2.449  0.00  0.00     0.210 HD
ENDBRANCH  43  48
ENDBRANCH  36  37
ENDBRANCH  35  36
ENDBRANCH   2  35
BRANCH   4  50
HETATM   50  O   UNK N   1      79.680  21.955   2.186  0.00  0.00    -0.390 OA
HETATM   51  H   UNK N   1      79.642  21.255   2.889  0.00  0.00     0.210 HD
ENDBRANCH   4  50
BRANCH   3  52
HETATM   52  O   UNK N   1      80.395  24.292   0.660  0.00  0.00    -0.390 OA
HETATM   53  H   UNK N   1      80.067  23.423   0.310  0.00  0.00     0.210 HD
ENDBRANCH   3  52
TORSDOF 16
ENDMDL
MODEL 8
REMARK VINA RESULT:      -5.9      2.693      7.311
REMARK  16 active torsions:
REMARK  status: ('A' for Active; 'I' for Inactive)
REMARK    1  A    between atoms: O_2  and  C_22 
REMARK    2  A    between atoms: O_2  and  C_26 
REMARK    3  A    between atoms: O_4  and  C_18 
REMARK    4  A    between atoms: O_5  and  C_19 
REMARK    5  A    between atoms: O_6  and  C_25 
REMARK    6  A    between atoms: O_6  and  C_29 
REMARK    7  A    between atoms: O_7  and  C_20 
REMARK    8  A    between atoms: O_8  and  C_21 
REMARK    9  A    between atoms: O_9  and  C_23 
REMARK   10  A    between atoms: O_10  and  C_24 
REMARK   11  A    between atoms: O_13  and  C_35 
REMARK   12  A    between atoms: O_14  and  C_40 
REMARK   13  A    between atoms: O_15  and  C_41 
REMARK   14  A    between atoms: O_16  and  C_43 
REMARK   15  A    between atoms: C_17  and  C_26 
REMARK   16  A    between atoms: C_30  and  C_33 
ROOT
HETATM    1  O   UNK N   1      79.842  28.400  -9.093  0.00  0.00    -0.348 OA
HETATM    2  C   UNK N   1      79.240  28.483 -10.363  0.00  0.00     0.180 C 
HETATM    3  C   UNK N   1      79.829  29.687 -11.135  0.00  0.00     0.180 C 
HETATM    4  C   UNK N   1      79.567  30.979 -10.331  0.00  0.00     0.183 C 
HETATM    5  C   UNK N   1      80.123  30.800  -8.904  0.00  0.00     0.205 C 
HETATM    6  C   UNK N   1      79.547  29.516  -8.271  0.00  0.00     0.298 C 
ENDROOT
BRANCH   6   7
HETATM    7  O   UNK N   1      80.166  29.292  -7.052  0.00  0.00    -0.311 OA
BRANCH   7   8
HETATM    8  C   UNK N   1      79.621  28.467  -6.115  0.00  0.00     0.157 A 
HETATM    9  C   UNK N   1      78.719  28.997  -5.183  0.00  0.00     0.124 A 
HETATM   10  O   UNK N   1      78.258  28.246  -4.188  0.00  0.00    -0.306 OA
HETATM   11  C   UNK N   1      78.613  26.977  -4.020  0.00  0.00     0.096 A 
HETATM   12  C   UNK N   1      79.480  26.342  -4.938  0.00  0.00     0.084 A 
HETATM   13  C   UNK N   1      78.140  26.280  -2.904  0.00  0.00     0.075 A 
HETATM   14  C   UNK N   1      79.984  27.108  -6.009  0.00  0.00     0.223 A 
HETATM   15  C   UNK N   1      79.833  24.985  -4.735  0.00  0.00     0.085 A 
HETATM   16  O   UNK N   1      80.744  26.612  -6.822  0.00  0.00    -0.284 OA
HETATM   17  C   UNK N   1      79.346  24.303  -3.610  0.00  0.00     0.074 A 
HETATM   18  C   UNK N   1      78.512  24.952  -2.691  0.00  0.00     0.071 A 
BRANCH   9  19
HETATM   19  C   UNK N   1      78.358  30.422  -5.211  0.00  0.00     0.004 A 
HETATM   20  C   UNK N   1      77.255  30.848  -5.961  0.00  0.00     0.053 A 
HETATM   21  C   UNK N   1      76.926  32.206  -6.040  0.00  0.00     0.099 A 
HETATM   22  C   UNK N   1      77.707  33.154  -5.328  0.00  0.00     0.098 A 
HETATM   23  C   UNK N   1      78.798  32.712  -4.568  0.00  0.00     0.040 A 
HETATM   24  C   UNK N   1      79.130  31.357  -4.518  0.00  0.00     0.017 A 
BRANCH  21  25
HETATM   25  O   UNK N   1      75.871  32.566  -6.807  0.00  0.00    -0.358 OA
HETATM   26  H   UNK N   1      75.508  33.459  -6.848  0.00  0.00     0.218 HD
ENDBRANCH  21  25
BRANCH  22  27
HETATM   27  O   UNK N   1      77.444  34.480  -5.357  0.00  0.00    -0.358 OA
HETATM   28  H   UNK N   1      76.908  34.941  -4.700  0.00  0.00     0.218 HD
ENDBRANCH  22  27
ENDBRANCH   9  19
BRANCH  15  29
HETATM   29  O   UNK N   1      80.643  24.343  -5.605  0.00  0.00    -0.360 OA
HETATM   30  H   UNK N   1      81.607  24.368  -5.524  0.00  0.00     0.217 HD
ENDBRANCH  15  29
BRANCH  18  31
HETATM   31  O   UNK N   1      78.065  24.305  -1.594  0.00  0.00    -0.361 OA
HETATM   32  H   UNK N   1      77.233  23.812  -1.598  0.00  0.00     0.217 HD
ENDBRANCH  18  31
ENDBRANCH   7   8
ENDBRANCH   6   7
BRANCH   5  33
HETATM   33  O   UNK N   1      79.857  31.928  -8.107  0.00  0.00    -0.388 OA
HETATM   34  H   UNK N   1      80.341  32.699  -8.505  0.00  0.00     0.210 HD
ENDBRANCH   5  33
BRANCH   2  35
HETATM   35  C   UNK N   1      79.515  27.148 -11.064  0.00  0.00     0.205 C 
BRANCH  35  36
HETATM   36  O   UNK N   1      78.735  26.138 -10.451  0.00  0.00    -0.356 OA
BRANCH  36  37
HETATM   37  C   UNK N   1      79.538  25.027 -10.089  0.00  0.00     0.291 C 
HETATM   38  O   UNK N   1      79.680  24.096 -11.160  0.00  0.00    -0.351 OA
HETATM   39  C   UNK N   1      78.429  23.556 -11.576  0.00  0.00     0.152 C 
HETATM   40  C   UNK N   1      77.754  22.762 -10.429  0.00  0.00     0.178 C 
HETATM   41  C   UNK N   1      78.686  22.651 -12.783  0.00  0.00     0.042 C 
HETATM   42  C   UNK N   1      77.587  23.694  -9.216  0.00  0.00     0.183 C 
HETATM   43  C   UNK N   1      78.939  24.334  -8.843  0.00  0.00     0.204 C 
BRANCH  40  44
HETATM   44  O   UNK N   1      76.489  22.294 -10.828  0.00  0.00    -0.390 OA
HETATM   45  H   UNK N   1      76.621  21.395 -11.231  0.00  0.00     0.210 HD
ENDBRANCH  40  44
BRANCH  42  46
HETATM   46  O   UNK N   1      77.006  23.032  -8.120  0.00  0.00    -0.390 OA
HETATM   47  H   UNK N   1      76.127  23.455  -7.938  0.00  0.00     0.210 HD
ENDBRANCH  42  46
BRANCH  43  48
HETATM   48  O   UNK N   1      79.828  23.381  -8.306  0.00  0.00    -0.388 OA
HETATM   49  H   UNK N   1      79.403  22.486  -8.337  0.00  0.00     0.210 HD
ENDBRANCH  43  48
ENDBRANCH  36  37
ENDBRANCH  35  36
ENDBRANCH   2  35
BRANCH   4  50
HETATM   50  O   UNK N   1      80.190  32.078 -10.942  0.00  0.00    -0.390 OA
HETATM   51  H   UNK N   1      79.970  32.875 -10.393  0.00  0.00     0.210 HD
ENDBRANCH   4  50
BRANCH   3  52
HETATM   52  O   UNK N   1      79.286  29.780 -12.429  0.00  0.00    -0.390 OA
HETATM   53  H   UNK N   1      79.663  30.595 -12.854  0.00  0.00     0.210 HD
ENDBRANCH   3  52
TORSDOF 16
ENDMDL
MODEL 9
REMARK VINA RESULT:      -5.9      7.424     11.096
REMARK  16 active torsions:
REMARK  status: ('A' for Active; 'I' for Inactive)
REMARK    1  A    between atoms: O_2  and  C_22 
REMARK    2  A    between atoms: O_2  and  C_26 
REMARK    3  A    between atoms: O_4  and  C_18 
REMARK    4  A    between atoms: O_5  and  C_19 
REMARK    5  A    between atoms: O_6  and  C_25 
REMARK    6  A    between atoms: O_6  and  C_29 
REMARK    7  A    between atoms: O_7  and  C_20 
REMARK    8  A    between atoms: O_8  and  C_21 
REMARK    9  A    between atoms: O_9  and  C_23 
REMARK   10  A    between atoms: O_10  and  C_24 
REMARK   11  A    between atoms: O_13  and  C_35 
REMARK   12  A    between atoms: O_14  and  C_40 
REMARK   13  A    between atoms: O_15  and  C_41 
REMARK   14  A    between atoms: O_16  and  C_43 
REMARK   15  A    between atoms: C_17  and  C_26 
REMARK   16  A    between atoms: C_30  and  C_33 
ROOT
HETATM    1  O   UNK N   1      82.304  24.515   3.669  0.00  0.00    -0.348 OA
HETATM    2  C   UNK N   1      81.448  23.426   3.411  0.00  0.00     0.180 C 
HETATM    3  C   UNK N   1      81.132  23.367   1.898  0.00  0.00     0.180 C 
HETATM    4  C   UNK N   1      80.463  24.690   1.470  0.00  0.00     0.183 C 
HETATM    5  C   UNK N   1      81.367  25.866   1.888  0.00  0.00     0.205 C 
HETATM    6  C   UNK N   1      81.700  25.766   3.392  0.00  0.00     0.298 C 
ENDROOT
BRANCH   6   7
HETATM    7  O   UNK N   1      82.627  26.741   3.719  0.00  0.00    -0.311 OA
BRANCH   7   8
HETATM    8  C   UNK N   1      82.856  27.105   5.012  0.00  0.00     0.157 A 
HETATM    9  C   UNK N   1      82.013  28.049   5.614  0.00  0.00     0.124 A 
HETATM   10  O   UNK N   1      82.276  28.508   6.832  0.00  0.00    -0.306 OA
HETATM   11  C   UNK N   1      83.327  28.110   7.541  0.00  0.00     0.096 A 
HETATM   12  C   UNK N   1      84.206  27.125   7.036  0.00  0.00     0.084 A 
HETATM   13  C   UNK N   1      83.572  28.699   8.785  0.00  0.00     0.075 A 
HETATM   14  C   UNK N   1      83.954  26.611   5.747  0.00  0.00     0.223 A 
HETATM   15  C   UNK N   1      85.313  26.715   7.820  0.00  0.00     0.085 A 
HETATM   16  O   UNK N   1      84.687  25.768   5.262  0.00  0.00    -0.284 OA
HETATM   17  C   UNK N   1      85.541  27.318   9.066  0.00  0.00     0.074 A 
HETATM   18  C   UNK N   1      84.680  28.315   9.542  0.00  0.00     0.071 A 
BRANCH   9  19
HETATM   19  C   UNK N   1      80.893  28.641   4.867  0.00  0.00     0.004 A 
HETATM   20  C   UNK N   1      79.680  27.950   4.764  0.00  0.00     0.053 A 
HETATM   21  C   UNK N   1      78.619  28.476   4.016  0.00  0.00     0.099 A 
HETATM   22  C   UNK N   1      78.773  29.736   3.380  0.00  0.00     0.098 A 
HETATM   23  C   UNK N   1      79.987  30.424   3.506  0.00  0.00     0.040 A 
HETATM   24  C   UNK N   1      81.045  29.877   4.233  0.00  0.00     0.017 A 
BRANCH  21  25
HETATM   25  O   UNK N   1      77.482  27.750   3.921  0.00  0.00    -0.358 OA
HETATM   26  H   UNK N   1      76.816  27.871   3.234  0.00  0.00     0.218 HD
ENDBRANCH  21  25
BRANCH  22  27
HETATM   27  O   UNK N   1      77.790  30.303   2.646  0.00  0.00    -0.358 OA
HETATM   28  H   UNK N   1      77.462  31.201   2.781  0.00  0.00     0.218 HD
ENDBRANCH  22  27
ENDBRANCH   9  19
BRANCH  15  29
HETATM   29  O   UNK N   1      86.160  25.761   7.376  0.00  0.00    -0.360 OA
HETATM   30  H   UNK N   1      85.895  24.833   7.303  0.00  0.00     0.217 HD
ENDBRANCH  15  29
BRANCH  18  31
HETATM   31  O   UNK N   1      84.914  28.914  10.728  0.00  0.00    -0.361 OA
HETATM   32  H   UNK N   1      85.068  29.867  10.796  0.00  0.00     0.217 HD
ENDBRANCH  18  31
ENDBRANCH   7   8
ENDBRANCH   6   7
BRANCH   5  33
HETATM   33  O   UNK N   1      80.775  27.103   1.576  0.00  0.00    -0.388 OA
HETATM   34  H   UNK N   1      81.354  27.553   0.906  0.00  0.00     0.210 HD
ENDBRANCH   5  33
BRANCH   2  35
HETATM   35  C   UNK N   1      82.177  22.172   3.906  0.00  0.00     0.205 C 
BRANCH  35  36
HETATM   36  O   UNK N   1      82.566  21.394   2.789  0.00  0.00    -0.356 OA
BRANCH  36  37
HETATM   37  C   UNK N   1      82.893  20.072   3.181  0.00  0.00     0.291 C 
HETATM   38  O   UNK N   1      83.228  19.249   2.065  0.00  0.00    -0.351 OA
HETATM   39  C   UNK N   1      82.151  19.128   1.141  0.00  0.00     0.152 C 
HETATM   40  C   UNK N   1      80.925  18.448   1.799  0.00  0.00     0.178 C 
HETATM   41  C   UNK N   1      82.647  18.311  -0.055  0.00  0.00     0.042 C 
HETATM   42  C   UNK N   1      80.512  19.264   3.037  0.00  0.00     0.183 C 
HETATM   43  C   UNK N   1      81.719  19.457   3.977  0.00  0.00     0.204 C 
BRANCH  40  44
HETATM   44  O   UNK N   1      79.844  18.396   0.900  0.00  0.00    -0.390 OA
HETATM   45  H   UNK N   1      80.166  17.944   0.076  0.00  0.00     0.210 HD
ENDBRANCH  40  44
BRANCH  42  46
HETATM   46  O   UNK N   1      79.419  18.687   3.707  0.00  0.00    -0.390 OA
HETATM   47  H   UNK N   1      78.623  18.768   3.119  0.00  0.00     0.210 HD
ENDBRANCH  42  46
BRANCH  43  48
HETATM   48  O   UNK N   1      82.092  18.243   4.590  0.00  0.00    -0.388 OA
HETATM   49  H   UNK N   1      82.114  17.527   3.905  0.00  0.00     0.210 HD
ENDBRANCH  43  48
ENDBRANCH  36  37
ENDBRANCH  35  36
ENDBRANCH   2  35
BRANCH   4  50
HETATM   50  O   UNK N   1      80.268  24.720   0.080  0.00  0.00    -0.390 OA
HETATM   51  H   UNK N   1      81.076  24.316  -0.332  0.00  0.00     0.210 HD
ENDBRANCH   4  50
BRANCH   3  52
HETATM   52  O   UNK N   1      80.316  22.265   1.588  0.00  0.00    -0.390 OA
HETATM   53  H   UNK N   1      80.194  21.738   2.421  0.00  0.00     0.210 HD
ENDBRANCH   3  52
TORSDOF 16
ENDMDL
