MODEL 1
REMARK VINA RESULT:      -5.4      0.000      0.000
REMARK  4 active torsions:
REMARK  status: ('A' for Active; 'I' for Inactive)
REMARK    1  A    between atoms: O_2  and  C_11 
REMARK    2  A    between atoms: O_4  and  C_15 
REMARK    3  A    between atoms: O_5  and  C_20 
REMARK    4  A    between atoms: C_7  and  C_10 
ROOT
HETATM    1  O   UNK N   1      76.044  39.298   0.039  0.00  0.00    -0.321 OA
HETATM    2  O   UNK N   1      77.049  35.457   0.147  0.00  0.00    -0.286 OA
HETATM    3  C   UNK N   1      75.935  37.133  -0.982  0.00  0.00     0.082 A 
HETATM    4  C   UNK N   1      77.160  37.500   1.096  0.00  0.00     0.048 A 
HETATM    5  C   UNK N   1      75.613  38.519  -0.952  0.00  0.00     0.094 A 
HETATM    6  C   UNK N   1      76.730  36.628   0.086  0.00  0.00     0.200 A 
HETATM    7  C   UNK N   1      75.447  36.346  -2.079  0.00  0.00     0.085 A 
HETATM    8  C   UNK N   1      76.790  38.842   1.038  0.00  0.00     0.159 A 
HETATM    9  C   UNK N   1      74.839  39.093  -1.967  0.00  0.00     0.074 A 
HETATM   10  C   UNK N   1      74.677  36.956  -3.074  0.00  0.00     0.074 A 
HETATM   11  C   UNK N   1      74.372  38.316  -3.025  0.00  0.00     0.071 A 
ENDROOT
BRANCH   4  12
HETATM   12  C   UNK N   1      78.002  37.019   2.212  0.00  0.00    -0.020 A 
HETATM   13  C   UNK N   1      77.462  36.896   3.500  0.00  0.00     0.015 A 
HETATM   14  C   UNK N   1      78.261  36.449   4.555  0.00  0.00     0.037 A 
HETATM   15  C   UNK N   1      79.606  36.121   4.333  0.00  0.00     0.065 A 
HETATM   16  C   UNK N   1      80.147  36.240   3.046  0.00  0.00     0.037 A 
HETATM   17  C   UNK N   1      79.347  36.686   1.987  0.00  0.00     0.015 A 
BRANCH  15  18
HETATM   18  O   UNK N   1      80.382  35.693   5.349  0.00  0.00    -0.361 OA
HETATM   19  H   UNK N   1      80.895  36.313   5.887  0.00  0.00     0.217 HD
ENDBRANCH  15  18
ENDBRANCH   4  12
BRANCH   7  20
HETATM   20  O   UNK N   1      75.689  35.023  -2.227  0.00  0.00    -0.360 OA
HETATM   21  H   UNK N   1      75.822  34.555  -3.054  0.00  0.00     0.217 HD
ENDBRANCH   7  20
BRANCH  11  22
HETATM   22  O   UNK N   1      73.631  38.882  -3.999  0.00  0.00    -0.361 OA
HETATM   23  H   UNK N   1      73.270  38.357  -4.729  0.00  0.00     0.217 HD
ENDBRANCH  11  22
TORSDOF 4
ENDMDL
MODEL 2
REMARK VINA RESULT:      -5.4      1.382      2.644
REMARK  4 active torsions:
REMARK  status: ('A' for Active; 'I' for Inactive)
REMARK    1  A    between atoms: O_2  and  C_11 
REMARK    2  A    between atoms: O_4  and  C_15 
REMARK    3  A    between atoms: O_5  and  C_20 
REMARK    4  A    between atoms: C_7  and  C_10 
ROOT
HETATM    1  O   UNK N   1      77.162  35.193  -0.744  0.00  0.00    -0.321 OA
HETATM    2  O   UNK N   1      76.400  38.745   0.861  0.00  0.00    -0.286 OA
HETATM    3  C   UNK N   1      75.966  37.267  -0.857  0.00  0.00     0.082 A 
HETATM    4  C   UNK N   1      77.512  36.786   0.970  0.00  0.00     0.048 A 
HETATM    5  C   UNK N   1      76.291  35.981  -1.373  0.00  0.00     0.094 A 
HETATM    6  C   UNK N   1      76.610  37.663   0.350  0.00  0.00     0.200 A 
HETATM    7  C   UNK N   1      75.016  38.068  -1.575  0.00  0.00     0.085 A 
HETATM    8  C   UNK N   1      77.765  35.547   0.384  0.00  0.00     0.159 A 
HETATM    9  C   UNK N   1      75.698  35.516  -2.553  0.00  0.00     0.074 A 
HETATM   10  C   UNK N   1      74.445  37.568  -2.750  0.00  0.00     0.074 A 
HETATM   11  C   UNK N   1      74.777  36.305  -3.239  0.00  0.00     0.071 A 
ENDROOT
BRANCH   4  12
HETATM   12  C   UNK N   1      78.187  37.152   2.233  0.00  0.00    -0.020 A 
HETATM   13  C   UNK N   1      79.446  37.767   2.206  0.00  0.00     0.015 A 
HETATM   14  C   UNK N   1      80.086  38.105   3.401  0.00  0.00     0.037 A 
HETATM   15  C   UNK N   1      79.474  37.831   4.633  0.00  0.00     0.065 A 
HETATM   16  C   UNK N   1      78.214  37.220   4.661  0.00  0.00     0.037 A 
HETATM   17  C   UNK N   1      77.570  36.882   3.465  0.00  0.00     0.015 A 
BRANCH  15  18
HETATM   18  O   UNK N   1      80.090  38.153   5.788  0.00  0.00    -0.361 OA
HETATM   19  H   UNK N   1      80.369  37.471   6.417  0.00  0.00     0.217 HD
ENDBRANCH  15  18
ENDBRANCH   4  12
BRANCH   7  20
HETATM   20  O   UNK N   1      74.619  39.301  -1.186  0.00  0.00    -0.360 OA
HETATM   21  H   UNK N   1      73.723  39.574  -0.980  0.00  0.00     0.217 HD
ENDBRANCH   7  20
BRANCH  11  22
HETATM   22  O   UNK N   1      74.210  35.844  -4.372  0.00  0.00    -0.361 OA
HETATM   23  H   UNK N   1      73.726  35.004  -4.389  0.00  0.00     0.217 HD
ENDBRANCH  11  22
TORSDOF 4
ENDMDL
MODEL 3
REMARK VINA RESULT:      -5.1      5.575     11.174
REMARK  4 active torsions:
REMARK  status: ('A' for Active; 'I' for Inactive)
REMARK    1  A    between atoms: O_2  and  C_11 
REMARK    2  A    between atoms: O_4  and  C_15 
REMARK    3  A    between atoms: O_5  and  C_20 
REMARK    4  A    between atoms: C_7  and  C_10 
ROOT
HETATM    1  O   UNK N   1      81.141  35.444   9.570  0.00  0.00    -0.321 OA
HETATM    2  O   UNK N   1      77.256  36.224   9.305  0.00  0.00    -0.286 OA
HETATM    3  C   UNK N   1      78.984  35.427  10.612  0.00  0.00     0.082 A 
HETATM    4  C   UNK N   1      79.292  36.250   8.336  0.00  0.00     0.048 A 
HETATM    5  C   UNK N   1      80.384  35.172  10.632  0.00  0.00     0.094 A 
HETATM    6  C   UNK N   1      78.441  35.979   9.417  0.00  0.00     0.200 A 
HETATM    7  C   UNK N   1      78.220  35.120  11.788  0.00  0.00     0.085 A 
HETATM    8  C   UNK N   1      80.651  35.964   8.452  0.00  0.00     0.159 A 
HETATM    9  C   UNK N   1      80.994  34.634  11.771  0.00  0.00     0.074 A 
HETATM   10  C   UNK N   1      78.866  34.584  12.907  0.00  0.00     0.074 A 
HETATM   11  C   UNK N   1      80.239  34.341  12.905  0.00  0.00     0.071 A 
ENDROOT
BRANCH   4  12
HETATM   12  C   UNK N   1      78.772  36.840   7.084  0.00  0.00    -0.020 A 
HETATM   13  C   UNK N   1      78.474  36.018   5.988  0.00  0.00     0.015 A 
HETATM   14  C   UNK N   1      77.990  36.578   4.803  0.00  0.00     0.037 A 
HETATM   15  C   UNK N   1      77.799  37.964   4.703  0.00  0.00     0.065 A 
HETATM   16  C   UNK N   1      78.093  38.786   5.798  0.00  0.00     0.037 A 
HETATM   17  C   UNK N   1      78.577  38.227   6.986  0.00  0.00     0.015 A 
BRANCH  15  18
HETATM   18  O   UNK N   1      77.336  38.508   3.560  0.00  0.00    -0.361 OA
HETATM   19  H   UNK N   1      76.816  37.989   2.929  0.00  0.00     0.217 HD
ENDBRANCH  15  18
ENDBRANCH   4  12
BRANCH   7  20
HETATM   20  O   UNK N   1      76.887  35.322  11.899  0.00  0.00    -0.360 OA
HETATM   21  H   UNK N   1      76.222  35.125  11.237  0.00  0.00     0.217 HD
ENDBRANCH   7  20
BRANCH  11  22
HETATM   22  O   UNK N   1      80.840  33.828  13.998  0.00  0.00    -0.361 OA
HETATM   23  H   UNK N   1      81.317  32.984  13.962  0.00  0.00     0.217 HD
ENDBRANCH  11  22
TORSDOF 4
ENDMDL
MODEL 4
REMARK VINA RESULT:      -5.0     37.642     38.584
REMARK  4 active torsions:
REMARK  status: ('A' for Active; 'I' for Inactive)
REMARK    1  A    between atoms: O_2  and  C_11 
REMARK    2  A    between atoms: O_4  and  C_15 
REMARK    3  A    between atoms: O_5  and  C_20 
REMARK    4  A    between atoms: C_7  and  C_10 
ROOT
HETATM    1  O   UNK N   1      48.660  12.740  15.668  0.00  0.00    -0.321 OA
HETATM    2  O   UNK N   1      49.945  15.812  13.504  0.00  0.00    -0.286 OA
HETATM    3  C   UNK N   1      49.672  13.524  13.643  0.00  0.00     0.082 A 
HETATM    4  C   UNK N   1      48.981  15.068  15.402  0.00  0.00     0.048 A 
HETATM    5  C   UNK N   1      49.192  12.475  14.476  0.00  0.00     0.094 A 
HETATM    6  C   UNK N   1      49.557  14.853  14.142  0.00  0.00     0.200 A 
HETATM    7  C   UNK N   1      50.229  13.178  12.366  0.00  0.00     0.085 A 
HETATM    8  C   UNK N   1      48.541  13.973  16.143  0.00  0.00     0.159 A 
HETATM    9  C   UNK N   1      49.266  11.142  14.056  0.00  0.00     0.074 A 
HETATM   10  C   UNK N   1      50.284  11.834  11.982  0.00  0.00     0.074 A 
HETATM   11  C   UNK N   1      49.809  10.821  12.814  0.00  0.00     0.071 A 
ENDROOT
BRANCH   4  12
HETATM   12  C   UNK N   1      48.826  16.433  15.947  0.00  0.00    -0.020 A 
HETATM   13  C   UNK N   1      49.864  17.019  16.685  0.00  0.00     0.015 A 
HETATM   14  C   UNK N   1      49.713  18.307  17.207  0.00  0.00     0.037 A 
HETATM   15  C   UNK N   1      48.524  19.019  16.996  0.00  0.00     0.065 A 
HETATM   16  C   UNK N   1      47.486  18.437  16.257  0.00  0.00     0.037 A 
HETATM   17  C   UNK N   1      47.636  17.148  15.732  0.00  0.00     0.015 A 
BRANCH  15  18
HETATM   18  O   UNK N   1      48.373  20.260  17.501  0.00  0.00    -0.361 OA
HETATM   19  H   UNK N   1      48.404  20.423  18.455  0.00  0.00     0.217 HD
ENDBRANCH  15  18
ENDBRANCH   4  12
BRANCH   7  20
HETATM   20  O   UNK N   1      50.711  14.080  11.481  0.00  0.00    -0.360 OA
HETATM   21  H   UNK N   1      51.149  13.888  10.650  0.00  0.00     0.217 HD
ENDBRANCH   7  20
BRANCH  11  22
HETATM   22  O   UNK N   1      49.870   9.533  12.419  0.00  0.00    -0.361 OA
HETATM   23  H   UNK N   1      49.130   9.112  11.955  0.00  0.00     0.217 HD
ENDBRANCH  11  22
TORSDOF 4
ENDMDL
MODEL 5
REMARK VINA RESULT:      -5.0     10.209     11.823
REMARK  4 active torsions:
REMARK  status: ('A' for Active; 'I' for Inactive)
REMARK    1  A    between atoms: O_2  and  C_11 
REMARK    2  A    between atoms: O_4  and  C_15 
REMARK    3  A    between atoms: O_5  and  C_20 
REMARK    4  A    between atoms: C_7  and  C_10 
ROOT
HETATM    1  O   UNK N   1      82.023  26.171   3.715  0.00  0.00    -0.321 OA
HETATM    2  O   UNK N   1      80.240  28.835   6.059  0.00  0.00    -0.286 OA
HETATM    3  C   UNK N   1      80.139  27.597   4.114  0.00  0.00     0.082 A 
HETATM    4  C   UNK N   1      82.004  27.481   5.685  0.00  0.00     0.048 A 
HETATM    5  C   UNK N   1      80.840  26.642   3.325  0.00  0.00     0.094 A 
HETATM    6  C   UNK N   1      80.760  28.019   5.324  0.00  0.00     0.200 A 
HETATM    7  C   UNK N   1      78.864  28.062   3.646  0.00  0.00     0.085 A 
HETATM    8  C   UNK N   1      82.610  26.550   4.843  0.00  0.00     0.159 A 
HETATM    9  C   UNK N   1      80.295  26.174   2.124  0.00  0.00     0.074 A 
HETATM   10  C   UNK N   1      78.354  27.570   2.441  0.00  0.00     0.074 A 
HETATM   11  C   UNK N   1      79.056  26.635   1.682  0.00  0.00     0.071 A 
ENDROOT
BRANCH   4  12
HETATM   12  C   UNK N   1      82.672  27.878   6.941  0.00  0.00    -0.020 A 
HETATM   13  C   UNK N   1      82.301  27.283   8.155  0.00  0.00     0.015 A 
HETATM   14  C   UNK N   1      82.929  27.665   9.344  0.00  0.00     0.037 A 
HETATM   15  C   UNK N   1      83.933  28.644   9.330  0.00  0.00     0.065 A 
HETATM   16  C   UNK N   1      84.308  29.237   8.117  0.00  0.00     0.037 A 
HETATM   17  C   UNK N   1      83.681  28.855   6.925  0.00  0.00     0.015 A 
BRANCH  15  18
HETATM   18  O   UNK N   1      84.539  29.017  10.475  0.00  0.00    -0.361 OA
HETATM   19  H   UNK N   1      84.118  28.877  11.336  0.00  0.00     0.217 HD
ENDBRANCH  15  18
ENDBRANCH   4  12
BRANCH   7  20
HETATM   20  O   UNK N   1      78.099  28.961   4.306  0.00  0.00    -0.360 OA
HETATM   21  H   UNK N   1      77.175  29.157   4.139  0.00  0.00     0.217 HD
ENDBRANCH   7  20
BRANCH  11  22
HETATM   22  O   UNK N   1      78.541  26.172   0.525  0.00  0.00    -0.361 OA
HETATM   23  H   UNK N   1      78.855  26.496  -0.333  0.00  0.00     0.217 HD
ENDBRANCH  11  22
TORSDOF 4
ENDMDL
MODEL 6
REMARK VINA RESULT:      -4.9     10.517     12.832
REMARK  4 active torsions:
REMARK  status: ('A' for Active; 'I' for Inactive)
REMARK    1  A    between atoms: O_2  and  C_11 
REMARK    2  A    between atoms: O_4  and  C_15 
REMARK    3  A    between atoms: O_5  and  C_20 
REMARK    4  A    between atoms: C_7  and  C_10 
ROOT
HETATM    1  O   UNK N   1      77.296  28.403  -5.105  0.00  0.00    -0.321 OA
HETATM    2  O   UNK N   1      78.830  28.443  -8.768  0.00  0.00    -0.286 OA
HETATM    3  C   UNK N   1      77.793  29.645  -7.093  0.00  0.00     0.082 A 
HETATM    4  C   UNK N   1      78.372  27.283  -6.889  0.00  0.00     0.048 A 
HETATM    5  C   UNK N   1      77.260  29.553  -5.776  0.00  0.00     0.094 A 
HETATM    6  C   UNK N   1      78.357  28.462  -7.649  0.00  0.00     0.200 A 
HETATM    7  C   UNK N   1      77.732  30.912  -7.764  0.00  0.00     0.085 A 
HETATM    8  C   UNK N   1      77.824  27.294  -5.608  0.00  0.00     0.159 A 
HETATM    9  C   UNK N   1      76.691  30.672  -5.158  0.00  0.00     0.074 A 
HETATM   10  C   UNK N   1      77.156  32.008  -7.113  0.00  0.00     0.074 A 
HETATM   11  C   UNK N   1      76.639  31.896  -5.823  0.00  0.00     0.071 A 
ENDROOT
BRANCH   4  12
HETATM   12  C   UNK N   1      78.966  26.039  -7.422  0.00  0.00    -0.020 A 
HETATM   13  C   UNK N   1      78.202  25.182  -8.228  0.00  0.00     0.015 A 
HETATM   14  C   UNK N   1      78.762  24.003  -8.724  0.00  0.00     0.037 A 
HETATM   15  C   UNK N   1      80.089  23.668  -8.420  0.00  0.00     0.065 A 
HETATM   16  C   UNK N   1      80.855  24.524  -7.618  0.00  0.00     0.037 A 
HETATM   17  C   UNK N   1      80.296  25.707  -7.121  0.00  0.00     0.015 A 
BRANCH  15  18
HETATM   18  O   UNK N   1      80.632  22.529  -8.894  0.00  0.00    -0.361 OA
HETATM   19  H   UNK N   1      81.564  22.485  -9.154  0.00  0.00     0.217 HD
ENDBRANCH  15  18
ENDBRANCH   4  12
BRANCH   7  20
HETATM   20  O   UNK N   1      78.209  31.132  -9.010  0.00  0.00    -0.360 OA
HETATM   21  H   UNK N   1      77.707  31.434  -9.770  0.00  0.00     0.217 HD
ENDBRANCH   7  20
BRANCH  11  22
HETATM   22  O   UNK N   1      76.092  32.968  -5.214  0.00  0.00    -0.361 OA
HETATM   23  H   UNK N   1      75.435  33.522  -5.662  0.00  0.00     0.217 HD
ENDBRANCH  11  22
TORSDOF 4
ENDMDL
MODEL 7
REMARK VINA RESULT:      -4.9     10.771     13.340
REMARK  4 active torsions:
REMARK  status: ('A' for Active; 'I' for Inactive)
REMARK    1  A    between atoms: O_2  and  C_11 
REMARK    2  A    between atoms: O_4  and  C_15 
REMARK    3  A    between atoms: O_5  and  C_20 
REMARK    4  A    between atoms: C_7  and  C_10 
ROOT
HETATM    1  O   UNK N   1      81.068  26.219   2.491  0.00  0.00    -0.321 OA
HETATM    2  O   UNK N   1      82.289  26.573   6.253  0.00  0.00    -0.286 OA
HETATM    3  C   UNK N   1      80.863  27.330   4.604  0.00  0.00     0.082 A 
HETATM    4  C   UNK N   1      82.466  25.522   4.266  0.00  0.00     0.048 A 
HETATM    5  C   UNK N   1      80.480  27.147   3.245  0.00  0.00     0.094 A 
HETATM    6  C   UNK N   1      81.892  26.485   5.108  0.00  0.00     0.200 A 
HETATM    7  C   UNK N   1      80.190  28.341   5.369  0.00  0.00     0.085 A 
HETATM    8  C   UNK N   1      82.023  25.420   2.948  0.00  0.00     0.159 A 
HETATM    9  C   UNK N   1      79.474  27.936   2.676  0.00  0.00     0.074 A 
HETATM   10  C   UNK N   1      79.189  29.108   4.765  0.00  0.00     0.074 A 
HETATM   11  C   UNK N   1      78.830  28.913   3.431  0.00  0.00     0.071 A 
ENDROOT
BRANCH   4  12
HETATM   12  C   UNK N   1      83.523  24.612   4.756  0.00  0.00    -0.020 A 
HETATM   13  C   UNK N   1      84.767  25.125   5.151  0.00  0.00     0.015 A 
HETATM   14  C   UNK N   1      85.767  24.263   5.607  0.00  0.00     0.037 A 
HETATM   15  C   UNK N   1      85.535  22.881   5.671  0.00  0.00     0.065 A 
HETATM   16  C   UNK N   1      84.292  22.367   5.280  0.00  0.00     0.037 A 
HETATM   17  C   UNK N   1      83.287  23.230   4.824  0.00  0.00     0.015 A 
BRANCH  15  18
HETATM   18  O   UNK N   1      86.499  22.046   6.107  0.00  0.00    -0.361 OA
HETATM   19  H   UNK N   1      86.491  21.694   7.009  0.00  0.00     0.217 HD
ENDBRANCH  15  18
ENDBRANCH   4  12
BRANCH   7  20
HETATM   20  O   UNK N   1      80.455  28.608   6.668  0.00  0.00    -0.360 OA
HETATM   21  H   UNK N   1      81.064  29.269   7.003  0.00  0.00     0.217 HD
ENDBRANCH   7  20
BRANCH  11  22
HETATM   22  O   UNK N   1      77.858  29.663   2.872  0.00  0.00    -0.361 OA
HETATM   23  H   UNK N   1      76.985  29.292   2.673  0.00  0.00     0.217 HD
ENDBRANCH  11  22
TORSDOF 4
ENDMDL
MODEL 8
REMARK VINA RESULT:      -4.8     11.892     14.609
REMARK  4 active torsions:
REMARK  status: ('A' for Active; 'I' for Inactive)
REMARK    1  A    between atoms: O_2  and  C_11 
REMARK    2  A    between atoms: O_4  and  C_15 
REMARK    3  A    between atoms: O_5  and  C_20 
REMARK    4  A    between atoms: C_7  and  C_10 
ROOT
HETATM    1  O   UNK N   1      83.206  26.653   3.360  0.00  0.00    -0.321 OA
HETATM    2  O   UNK N   1      81.233  24.292   5.870  0.00  0.00    -0.286 OA
HETATM    3  C   UNK N   1      81.463  26.411   4.985  0.00  0.00     0.082 A 
HETATM    4  C   UNK N   1      82.862  24.523   4.329  0.00  0.00     0.048 A 
HETATM    5  C   UNK N   1      82.217  27.195   4.068  0.00  0.00     0.094 A 
HETATM    6  C   UNK N   1      81.816  25.037   5.107  0.00  0.00     0.200 A 
HETATM    7  C   UNK N   1      80.404  27.049   5.715  0.00  0.00     0.085 A 
HETATM    8  C   UNK N   1      83.542  25.373   3.458  0.00  0.00     0.159 A 
HETATM    9  C   UNK N   1      81.929  28.553   3.887  0.00  0.00     0.074 A 
HETATM   10  C   UNK N   1      80.147  28.408   5.507  0.00  0.00     0.074 A 
HETATM   11  C   UNK N   1      80.899  29.159   4.603  0.00  0.00     0.071 A 
ENDROOT
BRANCH   4  12
HETATM   12  C   UNK N   1      83.247  23.099   4.411  0.00  0.00    -0.020 A 
HETATM   13  C   UNK N   1      84.295  22.699   5.253  0.00  0.00     0.015 A 
HETATM   14  C   UNK N   1      84.663  21.353   5.324  0.00  0.00     0.037 A 
HETATM   15  C   UNK N   1      83.987  20.394   4.556  0.00  0.00     0.065 A 
HETATM   16  C   UNK N   1      82.937  20.791   3.717  0.00  0.00     0.037 A 
HETATM   17  C   UNK N   1      82.566  22.139   3.645  0.00  0.00     0.015 A 
BRANCH  15  18
HETATM   18  O   UNK N   1      84.341  19.095   4.619  0.00  0.00    -0.361 OA
HETATM   19  H   UNK N   1      84.441  18.641   5.469  0.00  0.00     0.217 HD
ENDBRANCH  15  18
ENDBRANCH   4  12
BRANCH   7  20
HETATM   20  O   UNK N   1      79.612  26.414   6.609  0.00  0.00    -0.360 OA
HETATM   21  H   UNK N   1      79.034  26.825   7.254  0.00  0.00     0.217 HD
ENDBRANCH   7  20
BRANCH  11  22
HETATM   22  O   UNK N   1      80.629  30.467   4.417  0.00  0.00    -0.361 OA
HETATM   23  H   UNK N   1      80.616  30.858   3.530  0.00  0.00     0.217 HD
ENDBRANCH  11  22
TORSDOF 4
ENDMDL
MODEL 9
REMARK VINA RESULT:      -4.8      9.469     12.165
REMARK  4 active torsions:
REMARK  status: ('A' for Active; 'I' for Inactive)
REMARK    1  A    between atoms: O_2  and  C_11 
REMARK    2  A    between atoms: O_4  and  C_15 
REMARK    3  A    between atoms: O_5  and  C_20 
REMARK    4  A    between atoms: C_7  and  C_10 
ROOT
HETATM    1  O   UNK N   1      81.183  27.860  -4.145  0.00  0.00    -0.321 OA
HETATM    2  O   UNK N   1      77.215  27.756  -4.039  0.00  0.00    -0.286 OA
HETATM    3  C   UNK N   1      79.193  26.743  -3.417  0.00  0.00     0.082 A 
HETATM    4  C   UNK N   1      79.092  28.811  -4.709  0.00  0.00     0.048 A 
HETATM    5  C   UNK N   1      80.610  26.846  -3.500  0.00  0.00     0.094 A 
HETATM    6  C   UNK N   1      78.430  27.764  -4.051  0.00  0.00     0.200 A 
HETATM    7  C   UNK N   1      78.633  25.631  -2.702  0.00  0.00     0.085 A 
HETATM    8  C   UNK N   1      80.485  28.823  -4.735  0.00  0.00     0.159 A 
HETATM    9  C   UNK N   1      81.430  25.884  -2.900  0.00  0.00     0.074 A 
HETATM   10  C   UNK N   1      79.486  24.691  -2.116  0.00  0.00     0.074 A 
HETATM   11  C   UNK N   1      80.872  24.810  -2.209  0.00  0.00     0.071 A 
ENDROOT
BRANCH   4  12
HETATM   12  C   UNK N   1      78.337  29.900  -5.363  0.00  0.00    -0.020 A 
HETATM   13  C   UNK N   1      78.069  31.088  -4.668  0.00  0.00     0.015 A 
HETATM   14  C   UNK N   1      77.350  32.114  -5.284  0.00  0.00     0.037 A 
HETATM   15  C   UNK N   1      76.891  31.963  -6.601  0.00  0.00     0.065 A 
HETATM   16  C   UNK N   1      77.161  30.779  -7.299  0.00  0.00     0.037 A 
HETATM   17  C   UNK N   1      77.883  29.750  -6.683  0.00  0.00     0.015 A 
BRANCH  15  18
HETATM   18  O   UNK N   1      76.193  32.950  -7.199  0.00  0.00    -0.361 OA
HETATM   19  H   UNK N   1      76.049  32.956  -8.156  0.00  0.00     0.217 HD
ENDBRANCH  15  18
ENDBRANCH   4  12
BRANCH   7  20
HETATM   20  O   UNK N   1      77.305  25.424  -2.546  0.00  0.00    -0.360 OA
HETATM   21  H   UNK N   1      76.798  25.545  -1.741  0.00  0.00     0.217 HD
ENDBRANCH   7  20
BRANCH  11  22
HETATM   22  O   UNK N   1      81.674  23.893  -1.632  0.00  0.00    -0.361 OA
HETATM   23  H   UNK N   1      82.076  23.177  -2.147  0.00  0.00     0.217 HD
ENDBRANCH  11  22
TORSDOF 4
ENDMDL
