MODEL 1
REMARK VINA RESULT:      -6.0      0.000      0.000
REMARK  10 active torsions:
REMARK  status: ('A' for Active; 'I' for Inactive)
REMARK    1  A    between atoms: O_2  and  C_16 
REMARK    2  A    between atoms: O_2  and  C_18 
REMARK    3  A    between atoms: O_3  and  C_12 
REMARK    4  A    between atoms: O_4  and  C_13 
REMARK    5  A    between atoms: O_5  and  C_14 
REMARK    6  A    between atoms: O_8  and  C_24 
REMARK    7  A    between atoms: O_9  and  C_29 
REMARK    8  A    between atoms: O_10  and  C_30 
REMARK    9  A    between atoms: O_11  and  C_32 
REMARK   10  A    between atoms: C_19  and  C_23 
ROOT
HETATM    1  O   UNK N   1      82.193  28.452   6.713  0.00  0.00    -0.306 OA
HETATM    2  O   UNK N   1      84.931  26.069   5.096  0.00  0.00    -0.284 OA
HETATM    3  C   UNK N   1      83.038  27.288   4.827  0.00  0.00     0.157 A 
HETATM    4  C   UNK N   1      82.094  28.140   5.425  0.00  0.00     0.124 A 
HETATM    5  C   UNK N   1      84.099  26.800   5.603  0.00  0.00     0.223 A 
HETATM    6  C   UNK N   1      84.171  27.149   6.970  0.00  0.00     0.084 A 
HETATM    7  C   UNK N   1      83.164  27.993   7.494  0.00  0.00     0.096 A 
HETATM    8  C   UNK N   1      85.193  26.678   7.831  0.00  0.00     0.085 A 
HETATM    9  C   UNK N   1      83.171  28.346   8.845  0.00  0.00     0.075 A 
HETATM   10  C   UNK N   1      85.183  27.045   9.188  0.00  0.00     0.074 A 
HETATM   11  C   UNK N   1      84.173  27.873   9.694  0.00  0.00     0.071 A 
ENDROOT
BRANCH   3  12
HETATM   12  O   UNK N   1      82.906  26.916   3.527  0.00  0.00    -0.311 OA
BRANCH  12  13
HETATM   13  C   UNK N   1      82.721  25.580   3.199  0.00  0.00     0.298 C 
HETATM   14  O   UNK N   1      83.517  25.203   2.084  0.00  0.00    -0.351 OA
HETATM   15  C   UNK N   1      83.115  25.863   0.890  0.00  0.00     0.152 C 
HETATM   16  C   UNK N   1      81.652  25.506   0.523  0.00  0.00     0.178 C 
HETATM   17  C   UNK N   1      84.067  25.425  -0.224  0.00  0.00     0.042 C 
HETATM   18  C   UNK N   1      80.725  25.880   1.698  0.00  0.00     0.183 C 
HETATM   19  C   UNK N   1      81.236  25.220   2.988  0.00  0.00     0.205 C 
BRANCH  16  20
HETATM   20  O   UNK N   1      81.243  26.149  -0.660  0.00  0.00    -0.390 OA
HETATM   21  H   UNK N   1      81.040  25.446  -1.331  0.00  0.00     0.210 HD
ENDBRANCH  16  20
BRANCH  18  22
HETATM   22  O   UNK N   1      79.389  25.523   1.434  0.00  0.00    -0.390 OA
HETATM   23  H   UNK N   1      78.874  25.613   2.278  0.00  0.00     0.210 HD
ENDBRANCH  18  22
BRANCH  19  24
HETATM   24  O   UNK N   1      81.114  23.824   2.880  0.00  0.00    -0.388 OA
HETATM   25  H   UNK N   1      80.515  23.647   2.108  0.00  0.00     0.210 HD
ENDBRANCH  19  24
ENDBRANCH  12  13
ENDBRANCH   3  12
BRANCH   4  26
HETATM   26  C   UNK N   1      80.960  28.685   4.668  0.00  0.00     0.004 A 
HETATM   27  C   UNK N   1      79.770  27.954   4.564  0.00  0.00     0.053 A 
HETATM   28  C   UNK N   1      78.669  28.487   3.876  0.00  0.00     0.099 A 
HETATM   29  C   UNK N   1      78.763  29.764   3.292  0.00  0.00     0.098 A 
HETATM   30  C   UNK N   1      79.956  30.491   3.400  0.00  0.00     0.040 A 
HETATM   31  C   UNK N   1      81.050  29.956   4.087  0.00  0.00     0.017 A 
BRANCH  28  32
HETATM   32  O   UNK N   1      77.523  27.782   3.782  0.00  0.00    -0.358 OA
HETATM   33  H   UNK N   1      77.466  26.968   3.260  0.00  0.00     0.218 HD
ENDBRANCH  28  32
BRANCH  29  34
HETATM   34  O   UNK N   1      77.719  30.308   2.633  0.00  0.00    -0.358 OA
HETATM   35  H   UNK N   1      77.757  30.518   1.688  0.00  0.00     0.218 HD
ENDBRANCH  29  34
ENDBRANCH   4  26
BRANCH   8  36
HETATM   36  O   UNK N   1      86.174  25.875   7.366  0.00  0.00    -0.360 OA
HETATM   37  H   UNK N   1      86.917  25.598   7.923  0.00  0.00     0.217 HD
ENDBRANCH   8  36
BRANCH  11  38
HETATM   38  O   UNK N   1      84.156  28.219  10.998  0.00  0.00    -0.361 OA
HETATM   39  H   UNK N   1      83.773  29.054  11.298  0.00  0.00     0.217 HD
ENDBRANCH  11  38
TORSDOF 10
ENDMDL
MODEL 2
REMARK VINA RESULT:      -6.0      3.280      5.369
REMARK  10 active torsions:
REMARK  status: ('A' for Active; 'I' for Inactive)
REMARK    1  A    between atoms: O_2  and  C_16 
REMARK    2  A    between atoms: O_2  and  C_18 
REMARK    3  A    between atoms: O_3  and  C_12 
REMARK    4  A    between atoms: O_4  and  C_13 
REMARK    5  A    between atoms: O_5  and  C_14 
REMARK    6  A    between atoms: O_8  and  C_24 
REMARK    7  A    between atoms: O_9  and  C_29 
REMARK    8  A    between atoms: O_10  and  C_30 
REMARK    9  A    between atoms: O_11  and  C_32 
REMARK   10  A    between atoms: C_19  and  C_23 
ROOT
HETATM    1  O   UNK N   1      84.091  23.359   5.573  0.00  0.00    -0.306 OA
HETATM    2  O   UNK N   1      83.048  22.151   1.934  0.00  0.00    -0.284 OA
HETATM    3  C   UNK N   1      82.735  23.608   3.643  0.00  0.00     0.157 A 
HETATM    4  C   UNK N   1      83.137  24.019   4.926  0.00  0.00     0.124 A 
HETATM    5  C   UNK N   1      83.378  22.512   3.050  0.00  0.00     0.223 A 
HETATM    6  C   UNK N   1      84.386  21.832   3.768  0.00  0.00     0.084 A 
HETATM    7  C   UNK N   1      84.710  22.301   5.063  0.00  0.00     0.096 A 
HETATM    8  C   UNK N   1      85.067  20.701   3.254  0.00  0.00     0.085 A 
HETATM    9  C   UNK N   1      85.679  21.648   5.829  0.00  0.00     0.075 A 
HETATM   10  C   UNK N   1      86.039  20.058   4.040  0.00  0.00     0.074 A 
HETATM   11  C   UNK N   1      86.341  20.528   5.324  0.00  0.00     0.071 A 
ENDROOT
BRANCH   3  12
HETATM   12  O   UNK N   1      81.716  24.240   3.004  0.00  0.00    -0.311 OA
BRANCH  12  13
HETATM   13  C   UNK N   1      81.985  25.262   2.103  0.00  0.00     0.298 C 
HETATM   14  O   UNK N   1      81.717  26.537   2.669  0.00  0.00    -0.351 OA
HETATM   15  C   UNK N   1      80.333  26.727   2.933  0.00  0.00     0.152 C 
HETATM   16  C   UNK N   1      79.501  26.645   1.628  0.00  0.00     0.178 C 
HETATM   17  C   UNK N   1      80.169  28.101   3.585  0.00  0.00     0.042 C 
HETATM   18  C   UNK N   1      79.750  25.282   0.948  0.00  0.00     0.183 C 
HETATM   19  C   UNK N   1      81.261  25.072   0.755  0.00  0.00     0.205 C 
BRANCH  16  20
HETATM   20  O   UNK N   1      78.129  26.836   1.874  0.00  0.00    -0.390 OA
HETATM   21  H   UNK N   1      77.866  27.701   1.463  0.00  0.00     0.210 HD
ENDBRANCH  16  20
BRANCH  18  22
HETATM   22  O   UNK N   1      79.059  25.181  -0.274  0.00  0.00    -0.390 OA
HETATM   23  H   UNK N   1      78.964  24.218  -0.495  0.00  0.00     0.210 HD
ENDBRANCH  18  22
BRANCH  19  24
HETATM   24  O   UNK N   1      81.751  26.014  -0.166  0.00  0.00    -0.388 OA
HETATM   25  H   UNK N   1      81.947  26.842   0.347  0.00  0.00     0.210 HD
ENDBRANCH  19  24
ENDBRANCH  12  13
ENDBRANCH   3  12
BRANCH   4  26
HETATM   26  C   UNK N   1      82.503  25.157   5.603  0.00  0.00     0.004 A 
HETATM   27  C   UNK N   1      81.165  25.077   6.008  0.00  0.00     0.053 A 
HETATM   28  C   UNK N   1      80.566  26.146   6.691  0.00  0.00     0.099 A 
HETATM   29  C   UNK N   1      81.319  27.303   6.973  0.00  0.00     0.098 A 
HETATM   30  C   UNK N   1      82.657  27.377   6.567  0.00  0.00     0.040 A 
HETATM   31  C   UNK N   1      83.249  26.308   5.886  0.00  0.00     0.017 A 
BRANCH  28  32
HETATM   32  O   UNK N   1      79.278  26.064   7.083  0.00  0.00    -0.358 OA
HETATM   33  H   UNK N   1      78.724  26.852   7.182  0.00  0.00     0.218 HD
ENDBRANCH  28  32
BRANCH  29  34
HETATM   34  O   UNK N   1      80.774  28.344   7.637  0.00  0.00    -0.358 OA
HETATM   35  H   UNK N   1      80.531  28.289   8.572  0.00  0.00     0.218 HD
ENDBRANCH  29  34
ENDBRANCH   4  26
BRANCH   8  36
HETATM   36  O   UNK N   1      84.788  20.227   2.021  0.00  0.00    -0.360 OA
HETATM   37  H   UNK N   1      85.407  20.326   1.282  0.00  0.00     0.217 HD
ENDBRANCH   8  36
BRANCH  11  38
HETATM   38  O   UNK N   1      87.267  19.906   6.084  0.00  0.00    -0.361 OA
HETATM   39  H   UNK N   1      88.203  20.147   6.044  0.00  0.00     0.217 HD
ENDBRANCH  11  38
TORSDOF 10
ENDMDL
MODEL 3
REMARK VINA RESULT:      -5.9      8.751     13.296
REMARK  10 active torsions:
REMARK  status: ('A' for Active; 'I' for Inactive)
REMARK    1  A    between atoms: O_2  and  C_16 
REMARK    2  A    between atoms: O_2  and  C_18 
REMARK    3  A    between atoms: O_3  and  C_12 
REMARK    4  A    between atoms: O_4  and  C_13 
REMARK    5  A    between atoms: O_5  and  C_14 
REMARK    6  A    between atoms: O_8  and  C_24 
REMARK    7  A    between atoms: O_9  and  C_29 
REMARK    8  A    between atoms: O_10  and  C_30 
REMARK    9  A    between atoms: O_11  and  C_32 
REMARK   10  A    between atoms: C_19  and  C_23 
ROOT
HETATM    1  O   UNK N   1      78.288  27.497  -8.723  0.00  0.00    -0.306 OA
HETATM    2  O   UNK N   1      78.292  23.733  -7.453  0.00  0.00    -0.284 OA
HETATM    3  C   UNK N   1      78.247  25.940  -6.934  0.00  0.00     0.157 A 
HETATM    4  C   UNK N   1      78.233  27.260  -7.417  0.00  0.00     0.124 A 
HETATM    5  C   UNK N   1      78.290  24.883  -7.854  0.00  0.00     0.223 A 
HETATM    6  C   UNK N   1      78.351  25.172  -9.236  0.00  0.00     0.084 A 
HETATM    7  C   UNK N   1      78.356  26.530  -9.630  0.00  0.00     0.096 A 
HETATM    8  C   UNK N   1      78.423  24.165 -10.230  0.00  0.00     0.085 A 
HETATM    9  C   UNK N   1      78.444  26.873 -10.981  0.00  0.00     0.075 A 
HETATM   10  C   UNK N   1      78.511  24.531 -11.584  0.00  0.00     0.074 A 
HETATM   11  C   UNK N   1      78.525  25.880 -11.958  0.00  0.00     0.071 A 
ENDROOT
BRANCH   3  12
HETATM   12  O   UNK N   1      78.255  25.693  -5.598  0.00  0.00    -0.311 OA
BRANCH  12  13
HETATM   13  C   UNK N   1      79.449  25.718  -4.891  0.00  0.00     0.298 C 
HETATM   14  O   UNK N   1      80.035  24.426  -4.814  0.00  0.00    -0.351 OA
HETATM   15  C   UNK N   1      79.249  23.525  -4.043  0.00  0.00     0.152 C 
HETATM   16  C   UNK N   1      79.100  24.026  -2.584  0.00  0.00     0.178 C 
HETATM   17  C   UNK N   1      79.943  22.162  -4.073  0.00  0.00     0.042 C 
HETATM   18  C   UNK N   1      78.476  25.437  -2.588  0.00  0.00     0.183 C 
HETATM   19  C   UNK N   1      79.301  26.362  -3.497  0.00  0.00     0.205 C 
BRANCH  16  20
HETATM   20  O   UNK N   1      78.329  23.141  -1.808  0.00  0.00    -0.390 OA
HETATM   21  H   UNK N   1      77.847  23.679  -1.126  0.00  0.00     0.210 HD
ENDBRANCH  16  20
BRANCH  18  22
HETATM   22  O   UNK N   1      78.373  25.959  -1.285  0.00  0.00    -0.390 OA
HETATM   23  H   UNK N   1      78.679  26.903  -1.306  0.00  0.00     0.210 HD
ENDBRANCH  18  22
BRANCH  19  24
HETATM   24  O   UNK N   1      80.578  26.549  -2.940  0.00  0.00    -0.388 OA
HETATM   25  H   UNK N   1      80.558  27.418  -2.459  0.00  0.00     0.210 HD
ENDBRANCH  19  24
ENDBRANCH  12  13
ENDBRANCH   3  12
BRANCH   4  26
HETATM   26  C   UNK N   1      78.190  28.411  -6.506  0.00  0.00     0.004 A 
HETATM   27  C   UNK N   1      79.355  29.145  -6.247  0.00  0.00     0.053 A 
HETATM   28  C   UNK N   1      79.312  30.270  -5.410  0.00  0.00     0.099 A 
HETATM   29  C   UNK N   1      78.089  30.664  -4.833  0.00  0.00     0.098 A 
HETATM   30  C   UNK N   1      76.927  29.927  -5.097  0.00  0.00     0.040 A 
HETATM   31  C   UNK N   1      76.976  28.807  -5.932  0.00  0.00     0.017 A 
BRANCH  28  32
HETATM   32  O   UNK N   1      80.435  30.977  -5.166  0.00  0.00    -0.358 OA
HETATM   33  H   UNK N   1      80.452  31.943  -5.226  0.00  0.00     0.218 HD
ENDBRANCH  28  32
BRANCH  29  34
HETATM   34  O   UNK N   1      78.013  31.747  -4.032  0.00  0.00    -0.358 OA
HETATM   35  H   UNK N   1      78.586  32.518  -4.151  0.00  0.00     0.218 HD
ENDBRANCH  29  34
ENDBRANCH   4  26
BRANCH   8  36
HETATM   36  O   UNK N   1      78.416  22.857  -9.892  0.00  0.00    -0.360 OA
HETATM   37  H   UNK N   1      77.684  22.460  -9.398  0.00  0.00     0.217 HD
ENDBRANCH   8  36
BRANCH  11  38
HETATM   38  O   UNK N   1      78.619  26.233 -13.257  0.00  0.00    -0.361 OA
HETATM   39  H   UNK N   1      78.843  25.590 -13.944  0.00  0.00     0.217 HD
ENDBRANCH  11  38
TORSDOF 10
ENDMDL
MODEL 4
REMARK VINA RESULT:      -5.9      2.059      7.833
REMARK  10 active torsions:
REMARK  status: ('A' for Active; 'I' for Inactive)
REMARK    1  A    between atoms: O_2  and  C_16 
REMARK    2  A    between atoms: O_2  and  C_18 
REMARK    3  A    between atoms: O_3  and  C_12 
REMARK    4  A    between atoms: O_4  and  C_13 
REMARK    5  A    between atoms: O_5  and  C_14 
REMARK    6  A    between atoms: O_8  and  C_24 
REMARK    7  A    between atoms: O_9  and  C_29 
REMARK    8  A    between atoms: O_10  and  C_30 
REMARK    9  A    between atoms: O_11  and  C_32 
REMARK   10  A    between atoms: C_19  and  C_23 
ROOT
HETATM    1  O   UNK N   1      81.811  25.971   3.624  0.00  0.00    -0.306 OA
HETATM    2  O   UNK N   1      80.513  28.355   6.526  0.00  0.00    -0.284 OA
HETATM    3  C   UNK N   1      82.094  26.908   5.785  0.00  0.00     0.157 A 
HETATM    4  C   UNK N   1      82.533  26.084   4.734  0.00  0.00     0.124 A 
HETATM    5  C   UNK N   1      80.901  27.628   5.629  0.00  0.00     0.223 A 
HETATM    6  C   UNK N   1      80.157  27.481   4.438  0.00  0.00     0.084 A 
HETATM    7  C   UNK N   1      80.662  26.612   3.442  0.00  0.00     0.096 A 
HETATM    8  C   UNK N   1      78.929  28.150   4.210  0.00  0.00     0.085 A 
HETATM    9  C   UNK N   1      79.952  26.407   2.257  0.00  0.00     0.075 A 
HETATM   10  C   UNK N   1      78.230  27.931   3.010  0.00  0.00     0.074 A 
HETATM   11  C   UNK N   1      78.738  27.060   2.039  0.00  0.00     0.071 A 
ENDROOT
BRANCH   3  12
HETATM   12  O   UNK N   1      82.796  26.978   6.946  0.00  0.00    -0.311 OA
BRANCH  12  13
HETATM   13  C   UNK N   1      83.522  28.120   7.254  0.00  0.00     0.298 C 
HETATM   14  O   UNK N   1      84.919  27.901   7.116  0.00  0.00    -0.351 OA
HETATM   15  C   UNK N   1      85.413  26.967   8.067  0.00  0.00     0.152 C 
HETATM   16  C   UNK N   1      85.191  27.477   9.514  0.00  0.00     0.178 C 
HETATM   17  C   UNK N   1      86.904  26.769   7.793  0.00  0.00     0.042 C 
HETATM   18  C   UNK N   1      83.689  27.748   9.737  0.00  0.00     0.183 C 
HETATM   19  C   UNK N   1      83.168  28.693   8.642  0.00  0.00     0.205 C 
BRANCH  16  20
HETATM   20  O   UNK N   1      85.679  26.563  10.467  0.00  0.00    -0.390 OA
HETATM   21  H   UNK N   1      85.248  25.685  10.292  0.00  0.00     0.210 HD
ENDBRANCH  16  20
BRANCH  18  22
HETATM   22  O   UNK N   1      83.443  28.267  11.021  0.00  0.00    -0.390 OA
HETATM   23  H   UNK N   1      83.810  29.189  11.056  0.00  0.00     0.210 HD
ENDBRANCH  18  22
BRANCH  19  24
HETATM   24  O   UNK N   1      83.774  29.954   8.785  0.00  0.00    -0.388 OA
HETATM   25  H   UNK N   1      84.213  30.162   7.919  0.00  0.00     0.210 HD
ENDBRANCH  19  24
ENDBRANCH  12  13
ENDBRANCH   3  12
BRANCH   4  26
HETATM   26  C   UNK N   1      83.772  25.303   4.834  0.00  0.00     0.004 A 
HETATM   27  C   UNK N   1      84.986  25.857   4.409  0.00  0.00     0.053 A 
HETATM   28  C   UNK N   1      86.180  25.131   4.540  0.00  0.00     0.099 A 
HETATM   29  C   UNK N   1      86.154  23.842   5.106  0.00  0.00     0.098 A 
HETATM   30  C   UNK N   1      84.937  23.294   5.530  0.00  0.00     0.040 A 
HETATM   31  C   UNK N   1      83.751  24.022   5.397  0.00  0.00     0.017 A 
BRANCH  28  32
HETATM   32  O   UNK N   1      87.349  25.669   4.134  0.00  0.00    -0.358 OA
HETATM   33  H   UNK N   1      88.097  25.117   3.862  0.00  0.00     0.218 HD
ENDBRANCH  28  32
BRANCH  29  34
HETATM   34  O   UNK N   1      87.286  23.123   5.254  0.00  0.00    -0.358 OA
HETATM   35  H   UNK N   1      88.083  23.492   5.661  0.00  0.00     0.218 HD
ENDBRANCH  29  34
ENDBRANCH   4  26
BRANCH   8  36
HETATM   36  O   UNK N   1      78.417  28.991   5.134  0.00  0.00    -0.360 OA
HETATM   37  H   UNK N   1      77.996  28.667   5.944  0.00  0.00     0.217 HD
ENDBRANCH   8  36
BRANCH  11  38
HETATM   38  O   UNK N   1      78.064  26.841   0.890  0.00  0.00    -0.361 OA
HETATM   39  H   UNK N   1      78.503  26.867   0.029  0.00  0.00     0.217 HD
ENDBRANCH  11  38
TORSDOF 10
ENDMDL
MODEL 5
REMARK VINA RESULT:      -5.9      2.734      6.940
REMARK  10 active torsions:
REMARK  status: ('A' for Active; 'I' for Inactive)
REMARK    1  A    between atoms: O_2  and  C_16 
REMARK    2  A    between atoms: O_2  and  C_18 
REMARK    3  A    between atoms: O_3  and  C_12 
REMARK    4  A    between atoms: O_4  and  C_13 
REMARK    5  A    between atoms: O_5  and  C_14 
REMARK    6  A    between atoms: O_8  and  C_24 
REMARK    7  A    between atoms: O_9  and  C_29 
REMARK    8  A    between atoms: O_10  and  C_30 
REMARK    9  A    between atoms: O_11  and  C_32 
REMARK   10  A    between atoms: C_19  and  C_23 
ROOT
HETATM    1  O   UNK N   1      81.424  22.837   4.568  0.00  0.00    -0.306 OA
HETATM    2  O   UNK N   1      81.349  24.727   1.074  0.00  0.00    -0.284 OA
HETATM    3  C   UNK N   1      81.724  24.824   3.309  0.00  0.00     0.157 A 
HETATM    4  C   UNK N   1      81.754  24.123   4.527  0.00  0.00     0.124 A 
HETATM    5  C   UNK N   1      81.369  24.136   2.139  0.00  0.00     0.223 A 
HETATM    6  C   UNK N   1      81.020  22.770   2.221  0.00  0.00     0.084 A 
HETATM    7  C   UNK N   1      81.056  22.151   3.493  0.00  0.00     0.096 A 
HETATM    8  C   UNK N   1      80.624  22.008   1.094  0.00  0.00     0.085 A 
HETATM    9  C   UNK N   1      80.692  20.809   3.636  0.00  0.00     0.075 A 
HETATM   10  C   UNK N   1      80.263  20.660   1.259  0.00  0.00     0.074 A 
HETATM   11  C   UNK N   1      80.293  20.064   2.526  0.00  0.00     0.071 A 
ENDROOT
BRANCH   3  12
HETATM   12  O   UNK N   1      82.000  26.153   3.270  0.00  0.00    -0.311 OA
BRANCH  12  13
HETATM   13  C   UNK N   1      80.970  27.077   3.155  0.00  0.00     0.298 C 
HETATM   14  O   UNK N   1      81.327  28.150   2.295  0.00  0.00    -0.351 OA
HETATM   15  C   UNK N   1      82.380  28.941   2.832  0.00  0.00     0.152 C 
HETATM   16  C   UNK N   1      81.962  29.582   4.180  0.00  0.00     0.178 C 
HETATM   17  C   UNK N   1      82.716  30.025   1.806  0.00  0.00     0.042 C 
HETATM   18  C   UNK N   1      81.549  28.471   5.168  0.00  0.00     0.183 C 
HETATM   19  C   UNK N   1      80.471  27.584   4.524  0.00  0.00     0.205 C 
BRANCH  16  20
HETATM   20  O   UNK N   1      82.993  30.372   4.721  0.00  0.00    -0.390 OA
HETATM   21  H   UNK N   1      82.931  31.273   4.309  0.00  0.00     0.210 HD
ENDBRANCH  16  20
BRANCH  18  22
HETATM   22  O   UNK N   1      81.106  29.008   6.391  0.00  0.00    -0.390 OA
HETATM   23  H   UNK N   1      81.495  29.917   6.487  0.00  0.00     0.210 HD
ENDBRANCH  18  22
BRANCH  19  24
HETATM   24  O   UNK N   1      79.298  28.335   4.334  0.00  0.00    -0.388 OA
HETATM   25  H   UNK N   1      79.223  28.509   3.359  0.00  0.00     0.210 HD
ENDBRANCH  19  24
ENDBRANCH  12  13
ENDBRANCH   3  12
BRANCH   4  26
HETATM   26  C   UNK N   1      82.116  24.785   5.786  0.00  0.00     0.004 A 
HETATM   27  C   UNK N   1      83.402  25.314   5.957  0.00  0.00     0.053 A 
HETATM   28  C   UNK N   1      83.741  25.983   7.142  0.00  0.00     0.099 A 
HETATM   29  C   UNK N   1      82.781  26.125   8.162  0.00  0.00     0.098 A 
HETATM   30  C   UNK N   1      81.496  25.594   7.986  0.00  0.00     0.040 A 
HETATM   31  C   UNK N   1      81.164  24.928   6.802  0.00  0.00     0.017 A 
BRANCH  28  32
HETATM   32  O   UNK N   1      84.979  26.496   7.301  0.00  0.00    -0.358 OA
HETATM   33  H   UNK N   1      85.125  27.350   7.734  0.00  0.00     0.218 HD
ENDBRANCH  28  32
BRANCH  29  34
HETATM   34  O   UNK N   1      83.073  26.771   9.310  0.00  0.00    -0.358 OA
HETATM   35  H   UNK N   1      83.860  26.564   9.834  0.00  0.00     0.218 HD
ENDBRANCH  29  34
ENDBRANCH   4  26
BRANCH   8  36
HETATM   36  O   UNK N   1      80.583  22.563  -0.136  0.00  0.00    -0.360 OA
HETATM   37  H   UNK N   1      80.799  22.058  -0.934  0.00  0.00     0.217 HD
ENDBRANCH   8  36
BRANCH  11  38
HETATM   38  O   UNK N   1      79.937  18.772   2.687  0.00  0.00    -0.361 OA
HETATM   39  H   UNK N   1      80.010  18.130   1.968  0.00  0.00     0.217 HD
ENDBRANCH  11  38
TORSDOF 10
ENDMDL
MODEL 6
REMARK VINA RESULT:      -5.8     10.731     15.063
REMARK  10 active torsions:
REMARK  status: ('A' for Active; 'I' for Inactive)
REMARK    1  A    between atoms: O_2  and  C_16 
REMARK    2  A    between atoms: O_2  and  C_18 
REMARK    3  A    between atoms: O_3  and  C_12 
REMARK    4  A    between atoms: O_4  and  C_13 
REMARK    5  A    between atoms: O_5  and  C_14 
REMARK    6  A    between atoms: O_8  and  C_24 
REMARK    7  A    between atoms: O_9  and  C_29 
REMARK    8  A    between atoms: O_10  and  C_30 
REMARK    9  A    between atoms: O_11  and  C_32 
REMARK   10  A    between atoms: C_19  and  C_23 
ROOT
HETATM    1  O   UNK N   1      78.318  37.059   6.644  0.00  0.00    -0.306 OA
HETATM    2  O   UNK N   1      77.447  40.916   6.256  0.00  0.00    -0.284 OA
HETATM    3  C   UNK N   1      78.022  39.199   7.622  0.00  0.00     0.157 A 
HETATM    4  C   UNK N   1      78.339  37.833   7.723  0.00  0.00     0.124 A 
HETATM    5  C   UNK N   1      77.713  39.732   6.362  0.00  0.00     0.223 A 
HETATM    6  C   UNK N   1      77.697  38.878   5.237  0.00  0.00     0.084 A 
HETATM    7  C   UNK N   1      78.007  37.512   5.436  0.00  0.00     0.096 A 
HETATM    8  C   UNK N   1      77.370  39.329   3.934  0.00  0.00     0.085 A 
HETATM    9  C   UNK N   1      77.977  36.618   4.363  0.00  0.00     0.075 A 
HETATM   10  C   UNK N   1      77.346  38.413   2.868  0.00  0.00     0.074 A 
HETATM   11  C   UNK N   1      77.645  37.062   3.082  0.00  0.00     0.071 A 
ENDROOT
BRANCH   3  12
HETATM   12  O   UNK N   1      77.981  39.982   8.731  0.00  0.00    -0.311 OA
BRANCH  12  13
HETATM   13  C   UNK N   1      76.882  39.934   9.579  0.00  0.00     0.298 C 
HETATM   14  O   UNK N   1      75.860  40.826   9.156  0.00  0.00    -0.351 OA
HETATM   15  C   UNK N   1      76.259  42.187   9.259  0.00  0.00     0.152 C 
HETATM   16  C   UNK N   1      76.586  42.561  10.728  0.00  0.00     0.178 C 
HETATM   17  C   UNK N   1      75.110  43.048   8.732  0.00  0.00     0.042 C 
HETATM   18  C   UNK N   1      77.688  41.622  11.261  0.00  0.00     0.183 C 
HETATM   19  C   UNK N   1      77.262  40.159  11.057  0.00  0.00     0.205 C 
BRANCH  16  20
HETATM   20  O   UNK N   1      76.978  43.907  10.845  0.00  0.00    -0.390 OA
HETATM   21  H   UNK N   1      76.156  44.451  10.972  0.00  0.00     0.210 HD
ENDBRANCH  16  20
BRANCH  18  22
HETATM   22  O   UNK N   1      77.981  41.886  12.612  0.00  0.00    -0.390 OA
HETATM   23  H   UNK N   1      77.201  41.602  13.158  0.00  0.00     0.210 HD
ENDBRANCH  18  22
BRANCH  19  24
HETATM   24  O   UNK N   1      76.146  39.879  11.865  0.00  0.00    -0.388 OA
HETATM   25  H   UNK N   1      75.536  40.659  11.792  0.00  0.00     0.210 HD
ENDBRANCH  19  24
ENDBRANCH  12  13
ENDBRANCH   3  12
BRANCH   4  26
HETATM   26  C   UNK N   1      78.671  37.214   9.012  0.00  0.00     0.004 A 
HETATM   27  C   UNK N   1      77.686  36.529   9.735  0.00  0.00     0.053 A 
HETATM   28  C   UNK N   1      78.006  35.900  10.948  0.00  0.00     0.099 A 
HETATM   29  C   UNK N   1      79.326  35.957  11.435  0.00  0.00     0.098 A 
HETATM   30  C   UNK N   1      80.307  36.642  10.708  0.00  0.00     0.040 A 
HETATM   31  C   UNK N   1      79.982  37.267   9.500  0.00  0.00     0.017 A 
BRANCH  28  32
HETATM   32  O   UNK N   1      77.056  35.237  11.639  0.00  0.00    -0.358 OA
HETATM   33  H   UNK N   1      77.162  34.307  11.888  0.00  0.00     0.218 HD
ENDBRANCH  28  32
BRANCH  29  34
HETATM   34  O   UNK N   1      79.667  35.354  12.593  0.00  0.00    -0.358 OA
HETATM   35  H   UNK N   1      79.829  35.853  13.407  0.00  0.00     0.218 HD
ENDBRANCH  29  34
ENDBRANCH   4  26
BRANCH   8  36
HETATM   36  O   UNK N   1      77.073  40.626   3.705  0.00  0.00    -0.360 OA
HETATM   37  H   UNK N   1      77.762  41.301   3.614  0.00  0.00     0.217 HD
ENDBRANCH   8  36
BRANCH  11  38
HETATM   38  O   UNK N   1      77.613  36.180   2.061  0.00  0.00    -0.361 OA
HETATM   39  H   UNK N   1      77.347  35.260   2.192  0.00  0.00     0.217 HD
ENDBRANCH  11  38
TORSDOF 10
ENDMDL
MODEL 7
REMARK VINA RESULT:      -5.8     10.306     14.788
REMARK  10 active torsions:
REMARK  status: ('A' for Active; 'I' for Inactive)
REMARK    1  A    between atoms: O_2  and  C_16 
REMARK    2  A    between atoms: O_2  and  C_18 
REMARK    3  A    between atoms: O_3  and  C_12 
REMARK    4  A    between atoms: O_4  and  C_13 
REMARK    5  A    between atoms: O_5  and  C_14 
REMARK    6  A    between atoms: O_8  and  C_24 
REMARK    7  A    between atoms: O_9  and  C_29 
REMARK    8  A    between atoms: O_10  and  C_30 
REMARK    9  A    between atoms: O_11  and  C_32 
REMARK   10  A    between atoms: C_19  and  C_23 
ROOT
HETATM    1  O   UNK N   1      79.401  30.817 -10.210  0.00  0.00    -0.306 OA
HETATM    2  O   UNK N   1      80.139  26.913 -10.177  0.00  0.00    -0.284 OA
HETATM    3  C   UNK N   1      79.559  28.774  -9.017  0.00  0.00     0.157 A 
HETATM    4  C   UNK N   1      79.291  30.152  -9.065  0.00  0.00     0.124 A 
HETATM    5  C   UNK N   1      79.914  28.110 -10.200  0.00  0.00     0.223 A 
HETATM    6  C   UNK N   1      80.024  28.849 -11.399  0.00  0.00     0.084 A 
HETATM    7  C   UNK N   1      79.759  30.238 -11.349  0.00  0.00     0.096 A 
HETATM    8  C   UNK N   1      80.403  28.263 -12.632  0.00  0.00     0.085 A 
HETATM    9  C   UNK N   1      79.882  31.022 -12.499  0.00  0.00     0.075 A 
HETATM   10  C   UNK N   1      80.520  29.069 -13.778  0.00  0.00     0.074 A 
HETATM   11  C   UNK N   1      80.264  30.444 -13.711  0.00  0.00     0.071 A 
ENDROOT
BRANCH   3  12
HETATM   12  O   UNK N   1      79.510  28.101  -7.837  0.00  0.00    -0.311 OA
BRANCH  12  13
HETATM   13  C   UNK N   1      78.440  27.262  -7.556  0.00  0.00     0.298 C 
HETATM   14  O   UNK N   1      77.479  27.904  -6.731  0.00  0.00    -0.351 OA
HETATM   15  C   UNK N   1      77.987  28.185  -5.433  0.00  0.00     0.152 C 
HETATM   16  C   UNK N   1      78.392  26.881  -4.700  0.00  0.00     0.178 C 
HETATM   17  C   UNK N   1      76.893  28.918  -4.655  0.00  0.00     0.042 C 
HETATM   18  C   UNK N   1      79.433  26.120  -5.547  0.00  0.00     0.183 C 
HETATM   19  C   UNK N   1      78.886  25.908  -6.967  0.00  0.00     0.205 C 
BRANCH  16  20
HETATM   20  O   UNK N   1      78.893  27.144  -3.412  0.00  0.00    -0.390 OA
HETATM   21  H   UNK N   1      78.759  28.111  -3.227  0.00  0.00     0.210 HD
ENDBRANCH  16  20
BRANCH  18  22
HETATM   22  O   UNK N   1      79.791  24.898  -4.948  0.00  0.00    -0.390 OA
HETATM   23  H   UNK N   1      80.432  25.090  -4.214  0.00  0.00     0.210 HD
ENDBRANCH  18  22
BRANCH  19  24
HETATM   24  O   UNK N   1      77.779  25.043  -6.919  0.00  0.00    -0.388 OA
HETATM   25  H   UNK N   1      77.162  25.325  -7.644  0.00  0.00     0.210 HD
ENDBRANCH  19  24
ENDBRANCH  12  13
ENDBRANCH   3  12
BRANCH   4  26
HETATM   26  C   UNK N   1      78.916  30.906  -7.861  0.00  0.00     0.004 A 
HETATM   27  C   UNK N   1      77.607  31.379  -7.710  0.00  0.00     0.053 A 
HETATM   28  C   UNK N   1      77.232  32.064  -6.544  0.00  0.00     0.099 A 
HETATM   29  C   UNK N   1      78.178  32.271  -5.522  0.00  0.00     0.098 A 
HETATM   30  C   UNK N   1      79.486  31.794  -5.679  0.00  0.00     0.040 A 
HETATM   31  C   UNK N   1      79.854  31.112  -6.842  0.00  0.00     0.017 A 
BRANCH  28  32
HETATM   32  O   UNK N   1      75.969  32.515  -6.399  0.00  0.00    -0.358 OA
HETATM   33  H   UNK N   1      75.405  32.226  -5.667  0.00  0.00     0.218 HD
ENDBRANCH  28  32
BRANCH  29  34
HETATM   34  O   UNK N   1      77.846  32.918  -4.385  0.00  0.00    -0.358 OA
HETATM   35  H   UNK N   1      78.164  33.810  -4.187  0.00  0.00     0.218 HD
ENDBRANCH  29  34
ENDBRANCH   4  26
BRANCH   8  36
HETATM   36  O   UNK N   1      80.659  26.940 -12.719  0.00  0.00    -0.360 OA
HETATM   37  H   UNK N   1      80.209  26.372 -13.361  0.00  0.00     0.217 HD
ENDBRANCH   8  36
BRANCH  11  38
HETATM   38  O   UNK N   1      80.385  31.221 -14.807  0.00  0.00    -0.361 OA
HETATM   39  H   UNK N   1      80.998  31.969 -14.836  0.00  0.00     0.217 HD
ENDBRANCH  11  38
TORSDOF 10
ENDMDL
MODEL 8
REMARK VINA RESULT:      -5.7      8.099     12.343
REMARK  10 active torsions:
REMARK  status: ('A' for Active; 'I' for Inactive)
REMARK    1  A    between atoms: O_2  and  C_16 
REMARK    2  A    between atoms: O_2  and  C_18 
REMARK    3  A    between atoms: O_3  and  C_12 
REMARK    4  A    between atoms: O_4  and  C_13 
REMARK    5  A    between atoms: O_5  and  C_14 
REMARK    6  A    between atoms: O_8  and  C_24 
REMARK    7  A    between atoms: O_9  and  C_29 
REMARK    8  A    between atoms: O_10  and  C_30 
REMARK    9  A    between atoms: O_11  and  C_32 
REMARK   10  A    between atoms: C_19  and  C_23 
ROOT
HETATM    1  O   UNK N   1      78.219  29.205  -4.533  0.00  0.00    -0.306 OA
HETATM    2  O   UNK N   1      78.823  28.792  -8.438  0.00  0.00    -0.284 OA
HETATM    3  C   UNK N   1      79.075  27.944  -6.350  0.00  0.00     0.157 A 
HETATM    4  C   UNK N   1      78.833  28.114  -4.976  0.00  0.00     0.124 A 
HETATM    5  C   UNK N   1      78.631  28.929  -7.243  0.00  0.00     0.223 A 
HETATM    6  C   UNK N   1      77.984  30.079  -6.737  0.00  0.00     0.084 A 
HETATM    7  C   UNK N   1      77.804  30.176  -5.338  0.00  0.00     0.096 A 
HETATM    8  C   UNK N   1      77.528  31.133  -7.567  0.00  0.00     0.085 A 
HETATM    9  C   UNK N   1      77.197  31.305  -4.781  0.00  0.00     0.075 A 
HETATM   10  C   UNK N   1      76.919  32.259  -6.987  0.00  0.00     0.074 A 
HETATM   11  C   UNK N   1      76.757  32.346  -5.599  0.00  0.00     0.071 A 
ENDROOT
BRANCH   3  12
HETATM   12  O   UNK N   1      79.759  26.860  -6.802  0.00  0.00    -0.311 OA
BRANCH  12  13
HETATM   13  C   UNK N   1      79.146  25.615  -6.840  0.00  0.00     0.298 C 
HETATM   14  O   UNK N   1      80.103  24.565  -6.844  0.00  0.00    -0.351 OA
HETATM   15  C   UNK N   1      80.882  24.552  -8.034  0.00  0.00     0.152 C 
HETATM   16  C   UNK N   1      79.988  24.334  -9.282  0.00  0.00     0.178 C 
HETATM   17  C   UNK N   1      81.906  23.424  -7.907  0.00  0.00     0.042 C 
HETATM   18  C   UNK N   1      78.911  25.438  -9.339  0.00  0.00     0.183 C 
HETATM   19  C   UNK N   1      78.146  25.481  -8.007  0.00  0.00     0.205 C 
BRANCH  16  20
HETATM   20  O   UNK N   1      80.746  24.315 -10.466  0.00  0.00    -0.390 OA
HETATM   21  H   UNK N   1      81.045  23.380 -10.618  0.00  0.00     0.210 HD
ENDBRANCH  16  20
BRANCH  18  22
HETATM   22  O   UNK N   1      78.038  25.250 -10.426  0.00  0.00    -0.390 OA
HETATM   23  H   UNK N   1      78.090  26.054 -11.007  0.00  0.00     0.210 HD
ENDBRANCH  18  22
BRANCH  19  24
HETATM   24  O   UNK N   1      77.414  24.291  -7.848  0.00  0.00    -0.388 OA
HETATM   25  H   UNK N   1      77.093  24.274  -6.909  0.00  0.00     0.210 HD
ENDBRANCH  19  24
ENDBRANCH  12  13
ENDBRANCH   3  12
BRANCH   4  26
HETATM   26  C   UNK N   1      79.274  27.120  -3.989  0.00  0.00     0.004 A 
HETATM   27  C   UNK N   1      78.345  26.244  -3.413  0.00  0.00     0.053 A 
HETATM   28  C   UNK N   1      78.766  25.265  -2.500  0.00  0.00     0.099 A 
HETATM   29  C   UNK N   1      80.130  25.164  -2.166  0.00  0.00     0.098 A 
HETATM   30  C   UNK N   1      81.054  26.042  -2.746  0.00  0.00     0.040 A 
HETATM   31  C   UNK N   1      80.629  27.015  -3.655  0.00  0.00     0.017 A 
BRANCH  28  32
HETATM   32  O   UNK N   1      77.869  24.420  -1.950  0.00  0.00    -0.358 OA
HETATM   33  H   UNK N   1      78.122  23.783  -1.266  0.00  0.00     0.218 HD
ENDBRANCH  28  32
BRANCH  29  34
HETATM   34  O   UNK N   1      80.568  24.228  -1.298  0.00  0.00    -0.358 OA
HETATM   35  H   UNK N   1      81.460  24.248  -0.923  0.00  0.00     0.218 HD
ENDBRANCH  29  34
ENDBRANCH   4  26
BRANCH   8  36
HETATM   36  O   UNK N   1      77.678  31.073  -8.907  0.00  0.00    -0.360 OA
HETATM   37  H   UNK N   1      77.329  31.760  -9.494  0.00  0.00     0.217 HD
ENDBRANCH   8  36
BRANCH  11  38
HETATM   38  O   UNK N   1      76.181  33.431  -5.040  0.00  0.00    -0.361 OA
HETATM   39  H   UNK N   1      76.707  34.141  -4.647  0.00  0.00     0.217 HD
ENDBRANCH  11  38
TORSDOF 10
ENDMDL
MODEL 9
REMARK VINA RESULT:      -5.7      9.147     12.735
REMARK  10 active torsions:
REMARK  status: ('A' for Active; 'I' for Inactive)
REMARK    1  A    between atoms: O_2  and  C_16 
REMARK    2  A    between atoms: O_2  and  C_18 
REMARK    3  A    between atoms: O_3  and  C_12 
REMARK    4  A    between atoms: O_4  and  C_13 
REMARK    5  A    between atoms: O_5  and  C_14 
REMARK    6  A    between atoms: O_8  and  C_24 
REMARK    7  A    between atoms: O_9  and  C_29 
REMARK    8  A    between atoms: O_10  and  C_30 
REMARK    9  A    between atoms: O_11  and  C_32 
REMARK   10  A    between atoms: C_19  and  C_23 
ROOT
HETATM    1  O   UNK N   1      78.565  28.184  -4.730  0.00  0.00    -0.306 OA
HETATM    2  O   UNK N   1      79.075  25.507  -7.622  0.00  0.00    -0.284 OA
HETATM    3  C   UNK N   1      78.789  27.679  -7.037  0.00  0.00     0.157 A 
HETATM    4  C   UNK N   1      78.624  28.602  -5.990  0.00  0.00     0.124 A 
HETATM    5  C   UNK N   1      78.920  26.318  -6.726  0.00  0.00     0.223 A 
HETATM    6  C   UNK N   1      78.849  25.908  -5.376  0.00  0.00     0.084 A 
HETATM    7  C   UNK N   1      78.657  26.904  -4.390  0.00  0.00     0.096 A 
HETATM    8  C   UNK N   1      78.944  24.552  -4.978  0.00  0.00     0.085 A 
HETATM    9  C   UNK N   1      78.550  26.551  -3.042  0.00  0.00     0.075 A 
HETATM   10  C   UNK N   1      78.835  24.218  -3.617  0.00  0.00     0.074 A 
HETATM   11  C   UNK N   1      78.635  25.214  -2.653  0.00  0.00     0.071 A 
ENDROOT
BRANCH   3  12
HETATM   12  O   UNK N   1      78.787  28.095  -8.330  0.00  0.00    -0.311 OA
BRANCH  12  13
HETATM   13  C   UNK N   1      79.965  28.095  -9.065  0.00  0.00     0.298 C 
HETATM   14  O   UNK N   1      80.451  29.414  -9.269  0.00  0.00    -0.351 OA
HETATM   15  C   UNK N   1      79.584  30.184 -10.093  0.00  0.00     0.152 C 
HETATM   16  C   UNK N   1      79.444  29.547 -11.499  0.00  0.00     0.178 C 
HETATM   17  C   UNK N   1      80.175  31.591 -10.200  0.00  0.00     0.042 C 
HETATM   18  C   UNK N   1      78.927  28.101 -11.356  0.00  0.00     0.183 C 
HETATM   19  C   UNK N   1      79.837  27.321 -10.393  0.00  0.00     0.205 C 
BRANCH  16  20
HETATM   20  O   UNK N   1      78.592  30.301 -12.327  0.00  0.00    -0.390 OA
HETATM   21  H   UNK N   1      77.657  30.040 -12.117  0.00  0.00     0.210 HD
ENDBRANCH  16  20
BRANCH  18  22
HETATM   22  O   UNK N   1      78.835  27.460 -12.606  0.00  0.00    -0.390 OA
HETATM   23  H   UNK N   1      78.990  26.489 -12.466  0.00  0.00     0.210 HD
ENDBRANCH  18  22
BRANCH  19  24
HETATM   24  O   UNK N   1      81.113  27.179 -10.966  0.00  0.00    -0.388 OA
HETATM   25  H   UNK N   1      81.586  28.041 -10.829  0.00  0.00     0.210 HD
ENDBRANCH  19  24
ENDBRANCH  12  13
ENDBRANCH   3  12
BRANCH   4  26
HETATM   26  C   UNK N   1      78.480  30.040  -6.247  0.00  0.00     0.004 A 
HETATM   27  C   UNK N   1      77.206  30.618  -6.315  0.00  0.00     0.053 A 
HETATM   28  C   UNK N   1      77.063  31.998  -6.520  0.00  0.00     0.099 A 
HETATM   29  C   UNK N   1      78.210  32.805  -6.655  0.00  0.00     0.098 A 
HETATM   30  C   UNK N   1      79.481  32.223  -6.586  0.00  0.00     0.040 A 
HETATM   31  C   UNK N   1      79.618  30.846  -6.381  0.00  0.00     0.017 A 
BRANCH  28  32
HETATM   32  O   UNK N   1      75.835  32.552  -6.580  0.00  0.00    -0.358 OA
HETATM   33  H   UNK N   1      75.164  32.380  -5.902  0.00  0.00     0.218 HD
ENDBRANCH  28  32
BRANCH  29  34
HETATM   34  O   UNK N   1      78.106  34.137  -6.844  0.00  0.00    -0.358 OA
HETATM   35  H   UNK N   1      78.794  34.755  -6.557  0.00  0.00     0.218 HD
ENDBRANCH  29  34
ENDBRANCH   4  26
BRANCH   8  36
HETATM   36  O   UNK N   1      79.132  23.574  -5.890  0.00  0.00    -0.360 OA
HETATM   37  H   UNK N   1      78.956  23.713  -6.833  0.00  0.00     0.217 HD
ENDBRANCH   8  36
BRANCH  11  38
HETATM   38  O   UNK N   1      78.520  24.894  -1.347  0.00  0.00    -0.361 OA
HETATM   39  H   UNK N   1      77.658  24.761  -0.930  0.00  0.00     0.217 HD
ENDBRANCH  11  38
TORSDOF 10
ENDMDL
