MODEL 1
REMARK VINA RESULT:      -6.1      0.000      0.000
REMARK  12 active torsions:
REMARK  status: ('A' for Active; 'I' for Inactive)
REMARK    1  A    between atoms: O_1  and  C_6 
REMARK    2  A    between atoms: O_2  and  C_13 
REMARK    3  A    between atoms: C_4  and  C_15 
REMARK    4  A    between atoms: C_14  and  C_22 
REMARK    5  A    between atoms: C_21  and  C_24 
REMARK    6  A    between atoms: C_25  and  C_27 
REMARK    7  A    between atoms: C_28  and  C_31 
REMARK    8  A    between atoms: C_30  and  C_32 
REMARK    9  A    between atoms: C_33  and  C_34 
REMARK   10  A    between atoms: C_35  and  C_36 
REMARK   11  A    between atoms: C_38  and  C_41 
REMARK   12  A    between atoms: C_39  and  C_42 
ROOT
HETATM    1  C   UNK N   1      76.593  36.747  -0.436  0.00  0.00     0.001 C 
HETATM    2  C   UNK N   1      77.528  36.635  -1.390  0.00  0.00     0.001 C 
ENDROOT
BRANCH   1   3
HETATM    3  C   UNK N   1      76.965  36.716   1.008  0.00  0.00     0.007 C 
HETATM    4  C   UNK N   1      76.992  37.822   1.795  0.00  0.00    -0.062 C 
HETATM    5  C   UNK N   1      76.610  39.174   1.237  0.00  0.00     0.048 C 
BRANCH   4   6
HETATM    6  C   UNK N   1      77.375  37.768   3.242  0.00  0.00     0.007 C 
HETATM    7  C   UNK N   1      77.774  36.656   3.895  0.00  0.00     0.001 C 
BRANCH   7   8
HETATM    8  C   UNK N   1      78.123  36.747   5.340  0.00  0.00     0.007 C 
HETATM    9  C   UNK N   1      79.247  36.254   5.923  0.00  0.00    -0.062 C 
HETATM   10  C   UNK N   1      80.359  35.578   5.143  0.00  0.00     0.048 C 
BRANCH   9  11
HETATM   11  C   UNK N   1      79.377  36.414   7.405  0.00  0.00     0.003 C 
HETATM   12  C   UNK N   1      78.333  36.351   8.254  0.00  0.00    -0.016 C 
BRANCH  12  13
HETATM   13  C   UNK N   1      78.524  36.547   9.749  0.00  0.00     0.044 C 
HETATM   14  C   UNK N   1      78.661  38.050  10.180  0.00  0.00    -0.035 C 
HETATM   15  C   UNK N   1      80.052  38.559   9.740  0.00  0.00     0.045 C 
HETATM   16  C   UNK N   1      77.560  38.914   9.523  0.00  0.00     0.016 C 
HETATM   17  C   UNK N   1      78.479  38.172  11.716  0.00  0.00     0.016 C 
HETATM   18  C   UNK N   1      81.202  37.764  10.388  0.00  0.00     0.142 C 
HETATM   19  C   UNK N   1      80.930  36.272  10.453  0.00  0.00     0.007 C 
HETATM   20  C   UNK N   1      79.732  35.712  10.158  0.00  0.00    -0.077 C 
HETATM   21  C   UNK N   1      79.573  34.214  10.223  0.00  0.00     0.044 C 
BRANCH  18  22
HETATM   22  O   UNK N   1      81.452  38.240  11.685  0.00  0.00    -0.392 OA
HETATM   23  H   UNK N   1      81.835  37.484  12.203  0.00  0.00     0.210 HD
ENDBRANCH  18  22
ENDBRANCH  12  13
ENDBRANCH   9  11
ENDBRANCH   7   8
ENDBRANCH   4   6
ENDBRANCH   1   3
BRANCH   2  24
HETATM   24  C   UNK N   1      77.158  36.714  -2.834  0.00  0.00     0.007 C 
HETATM   25  C   UNK N   1      77.776  37.482  -3.768  0.00  0.00    -0.062 C 
HETATM   26  C   UNK N   1      78.984  38.352  -3.455  0.00  0.00     0.048 C 
BRANCH  25  27
HETATM   27  C   UNK N   1      77.226  37.483  -5.165  0.00  0.00     0.007 C 
HETATM   28  C   UNK N   1      77.537  38.424  -6.076  0.00  0.00     0.001 C 
BRANCH  28  29
HETATM   29  C   UNK N   1      76.949  38.408  -7.443  0.00  0.00     0.007 C 
HETATM   30  C   UNK N   1      76.029  39.316  -7.864  0.00  0.00    -0.062 C 
HETATM   31  C   UNK N   1      75.557  40.424  -6.949  0.00  0.00     0.048 C 
BRANCH  30  32
HETATM   32  C   UNK N   1      75.474  39.296  -9.251  0.00  0.00     0.007 C 
HETATM   33  C   UNK N   1      75.410  38.192 -10.024  0.00  0.00     0.009 C 
BRANCH  33  34
HETATM   34  C   UNK N   1      74.832  38.229 -11.410  0.00  0.00    -0.048 C 
HETATM   35  C   UNK N   1      73.384  37.715 -11.598  0.00  0.00    -0.018 C 
HETATM   36  C   UNK N   1      73.038  37.495 -13.099  0.00  0.00     0.045 C 
HETATM   37  C   UNK N   1      73.147  36.359 -10.893  0.00  0.00     0.020 C 
HETATM   38  C   UNK N   1      72.431  38.755 -10.961  0.00  0.00     0.020 C 
HETATM   39  C   UNK N   1      73.448  38.692 -13.943  0.00  0.00     0.123 C 
HETATM   40  C   UNK N   1      74.968  38.838 -13.872  0.00  0.00     0.066 C 
HETATM   41  C   UNK N   1      75.557  38.719 -12.477  0.00  0.00    -0.074 C 
HETATM   42  C   UNK N   1      77.022  39.100 -12.376  0.00  0.00     0.044 C 
BRANCH  39  43
HETATM   43  O   UNK N   1      73.075  38.511 -15.284  0.00  0.00    -0.395 OA
HETATM   44  H   UNK N   1      73.887  38.215 -15.772  0.00  0.00     0.210 HD
ENDBRANCH  39  43
ENDBRANCH  33  34
ENDBRANCH  30  32
ENDBRANCH  28  29
ENDBRANCH  25  27
ENDBRANCH   2  24
TORSDOF 12
ENDMDL
MODEL 2
REMARK VINA RESULT:      -6.0      1.120      2.259
REMARK  12 active torsions:
REMARK  status: ('A' for Active; 'I' for Inactive)
REMARK    1  A    between atoms: O_1  and  C_6 
REMARK    2  A    between atoms: O_2  and  C_13 
REMARK    3  A    between atoms: C_4  and  C_15 
REMARK    4  A    between atoms: C_14  and  C_22 
REMARK    5  A    between atoms: C_21  and  C_24 
REMARK    6  A    between atoms: C_25  and  C_27 
REMARK    7  A    between atoms: C_28  and  C_31 
REMARK    8  A    between atoms: C_30  and  C_32 
REMARK    9  A    between atoms: C_33  and  C_34 
REMARK   10  A    between atoms: C_35  and  C_36 
REMARK   11  A    between atoms: C_38  and  C_41 
REMARK   12  A    between atoms: C_39  and  C_42 
ROOT
HETATM    1  C   UNK N   1      76.466  37.033  -0.375  0.00  0.00     0.001 C 
HETATM    2  C   UNK N   1      77.238  36.656  -1.404  0.00  0.00     0.001 C 
ENDROOT
BRANCH   1   3
HETATM    3  C   UNK N   1      76.945  36.894   1.031  0.00  0.00     0.007 C 
HETATM    4  C   UNK N   1      77.073  37.945   1.882  0.00  0.00    -0.062 C 
HETATM    5  C   UNK N   1      76.702  39.343   1.442  0.00  0.00     0.048 C 
BRANCH   4   6
HETATM    6  C   UNK N   1      77.562  37.783   3.288  0.00  0.00     0.007 C 
HETATM    7  C   UNK N   1      77.732  36.601   3.916  0.00  0.00     0.001 C 
BRANCH   7   8
HETATM    8  C   UNK N   1      78.223  36.587   5.322  0.00  0.00     0.007 C 
HETATM    9  C   UNK N   1      79.493  36.314   5.723  0.00  0.00    -0.062 C 
HETATM   10  C   UNK N   1      80.627  36.038   4.754  0.00  0.00     0.048 C 
BRANCH   9  11
HETATM   11  C   UNK N   1      79.761  36.309   7.195  0.00  0.00     0.003 C 
HETATM   12  C   UNK N   1      79.538  37.370   7.995  0.00  0.00    -0.016 C 
BRANCH  12  13
HETATM   13  C   UNK N   1      79.853  37.312   9.481  0.00  0.00     0.044 C 
HETATM   14  C   UNK N   1      78.583  37.348  10.402  0.00  0.00    -0.035 C 
HETATM   15  C   UNK N   1      78.006  38.781  10.384  0.00  0.00     0.045 C 
HETATM   16  C   UNK N   1      77.513  36.350   9.902  0.00  0.00     0.016 C 
HETATM   17  C   UNK N   1      78.969  36.917  11.841  0.00  0.00     0.016 C 
HETATM   18  C   UNK N   1      79.011  39.827  10.905  0.00  0.00     0.142 C 
HETATM   19  C   UNK N   1      80.430  39.577  10.427  0.00  0.00     0.007 C 
HETATM   20  C   UNK N   1      80.818  38.454   9.777  0.00  0.00    -0.077 C 
HETATM   21  C   UNK N   1      82.247  38.317   9.314  0.00  0.00     0.044 C 
BRANCH  18  22
HETATM   22  O   UNK N   1      78.999  39.853  12.309  0.00  0.00    -0.392 OA
HETATM   23  H   UNK N   1      78.214  39.320  12.602  0.00  0.00     0.210 HD
ENDBRANCH  18  22
ENDBRANCH  12  13
ENDBRANCH   9  11
ENDBRANCH   7   8
ENDBRANCH   4   6
ENDBRANCH   1   3
BRANCH   2  24
HETATM   24  C   UNK N   1      76.776  36.839  -2.812  0.00  0.00     0.007 C 
HETATM   25  C   UNK N   1      77.242  37.770  -3.683  0.00  0.00    -0.062 C 
HETATM   26  C   UNK N   1      78.357  38.744  -3.333  0.00  0.00     0.048 C 
BRANCH  25  27
HETATM   27  C   UNK N   1      76.614  37.850  -5.043  0.00  0.00     0.007 C 
HETATM   28  C   UNK N   1      77.307  38.154  -6.157  0.00  0.00     0.001 C 
BRANCH  28  29
HETATM   29  C   UNK N   1      76.643  38.252  -7.485  0.00  0.00     0.007 C 
HETATM   30  C   UNK N   1      77.008  37.494  -8.553  0.00  0.00    -0.062 C 
HETATM   31  C   UNK N   1      78.123  36.479  -8.439  0.00  0.00     0.048 C 
BRANCH  30  32
HETATM   32  C   UNK N   1      76.308  37.591  -9.869  0.00  0.00     0.007 C 
HETATM   33  C   UNK N   1      75.251  38.396 -10.106  0.00  0.00     0.009 C 
BRANCH  33  34
HETATM   34  C   UNK N   1      74.590  38.459 -11.454  0.00  0.00    -0.048 C 
HETATM   35  C   UNK N   1      75.052  39.571 -12.427  0.00  0.00    -0.018 C 
HETATM   36  C   UNK N   1      74.073  39.732 -13.626  0.00  0.00     0.045 C 
HETATM   37  C   UNK N   1      75.133  40.954 -11.742  0.00  0.00     0.020 C 
HETATM   38  C   UNK N   1      76.471  39.200 -12.922  0.00  0.00     0.020 C 
HETATM   39  C   UNK N   1      73.729  38.386 -14.245  0.00  0.00     0.123 C 
HETATM   40  C   UNK N   1      72.992  37.546 -13.204  0.00  0.00     0.066 C 
HETATM   41  C   UNK N   1      73.618  37.550 -11.820  0.00  0.00    -0.074 C 
HETATM   42  C   UNK N   1      73.030  36.535 -10.857  0.00  0.00     0.044 C 
BRANCH  39  43
HETATM   43  O   UNK N   1      72.897  38.548 -15.365  0.00  0.00    -0.395 OA
HETATM   44  H   UNK N   1      72.911  37.688 -15.861  0.00  0.00     0.210 HD
ENDBRANCH  39  43
ENDBRANCH  33  34
ENDBRANCH  30  32
ENDBRANCH  28  29
ENDBRANCH  25  27
ENDBRANCH   2  24
TORSDOF 12
ENDMDL
MODEL 3
REMARK VINA RESULT:      -5.9      1.550      2.907
REMARK  12 active torsions:
REMARK  status: ('A' for Active; 'I' for Inactive)
REMARK    1  A    between atoms: O_1  and  C_6 
REMARK    2  A    between atoms: O_2  and  C_13 
REMARK    3  A    between atoms: C_4  and  C_15 
REMARK    4  A    between atoms: C_14  and  C_22 
REMARK    5  A    between atoms: C_21  and  C_24 
REMARK    6  A    between atoms: C_25  and  C_27 
REMARK    7  A    between atoms: C_28  and  C_31 
REMARK    8  A    between atoms: C_30  and  C_32 
REMARK    9  A    between atoms: C_33  and  C_34 
REMARK   10  A    between atoms: C_35  and  C_36 
REMARK   11  A    between atoms: C_38  and  C_41 
REMARK   12  A    between atoms: C_39  and  C_42 
ROOT
HETATM    1  C   UNK N   1      76.843  36.963   0.305  0.00  0.00     0.001 C 
HETATM    2  C   UNK N   1      76.962  38.027  -0.503  0.00  0.00     0.001 C 
ENDROOT
BRANCH   1   3
HETATM    3  C   UNK N   1      77.262  37.038   1.734  0.00  0.00     0.007 C 
HETATM    4  C   UNK N   1      78.500  36.688   2.167  0.00  0.00    -0.062 C 
HETATM    5  C   UNK N   1      79.553  36.214   1.191  0.00  0.00     0.048 C 
BRANCH   4   6
HETATM    6  C   UNK N   1      78.898  36.766   3.609  0.00  0.00     0.007 C 
HETATM    7  C   UNK N   1      78.089  36.480   4.651  0.00  0.00     0.001 C 
BRANCH   7   8
HETATM    8  C   UNK N   1      78.616  36.605   6.038  0.00  0.00     0.007 C 
HETATM    9  C   UNK N   1      78.562  37.717   6.817  0.00  0.00    -0.062 C 
HETATM   10  C   UNK N   1      77.881  39.001   6.384  0.00  0.00     0.048 C 
BRANCH   9  11
HETATM   11  C   UNK N   1      79.197  37.637   8.170  0.00  0.00     0.003 C 
HETATM   12  C   UNK N   1      79.019  36.604   9.016  0.00  0.00    -0.016 C 
BRANCH  12  13
HETATM   13  C   UNK N   1      79.672  36.591  10.388  0.00  0.00     0.044 C 
HETATM   14  C   UNK N   1      80.494  35.289  10.689  0.00  0.00    -0.035 C 
HETATM   15  C   UNK N   1      79.502  34.131  10.938  0.00  0.00     0.045 C 
HETATM   16  C   UNK N   1      81.419  34.935   9.501  0.00  0.00     0.016 C 
HETATM   17  C   UNK N   1      81.408  35.520  11.921  0.00  0.00     0.016 C 
HETATM   18  C   UNK N   1      78.570  34.402  12.135  0.00  0.00     0.142 C 
HETATM   19  C   UNK N   1      78.086  35.839  12.198  0.00  0.00     0.007 C 
HETATM   20  C   UNK N   1      78.567  36.830  11.410  0.00  0.00    -0.077 C 
HETATM   21  C   UNK N   1      77.995  38.221  11.528  0.00  0.00     0.044 C 
BRANCH  18  22
HETATM   22  O   UNK N   1      79.222  34.086  13.338  0.00  0.00    -0.392 OA
HETATM   23  H   UNK N   1      80.124  33.745  13.099  0.00  0.00     0.210 HD
ENDBRANCH  18  22
ENDBRANCH  12  13
ENDBRANCH   9  11
ENDBRANCH   7   8
ENDBRANCH   4   6
ENDBRANCH   1   3
BRANCH   2  24
HETATM   24  C   UNK N   1      76.497  37.964  -1.920  0.00  0.00     0.007 C 
HETATM   25  C   UNK N   1      77.293  37.782  -3.006  0.00  0.00    -0.062 C 
HETATM   26  C   UNK N   1      78.796  37.573  -2.904  0.00  0.00     0.048 C 
BRANCH  25  27
HETATM   27  C   UNK N   1      76.657  37.808  -4.365  0.00  0.00     0.007 C 
HETATM   28  C   UNK N   1      77.217  38.419  -5.426  0.00  0.00     0.001 C 
BRANCH  28  29
HETATM   29  C   UNK N   1      76.542  38.448  -6.753  0.00  0.00     0.007 C 
HETATM   30  C   UNK N   1      77.029  37.803  -7.845  0.00  0.00    -0.062 C 
HETATM   31  C   UNK N   1      78.302  36.990  -7.763  0.00  0.00     0.048 C 
BRANCH  30  32
HETATM   32  C   UNK N   1      76.319  37.824  -9.160  0.00  0.00     0.007 C 
HETATM   33  C   UNK N   1      75.319  38.678  -9.465  0.00  0.00     0.009 C 
BRANCH  33  34
HETATM   34  C   UNK N   1      74.646  38.660 -10.808  0.00  0.00    -0.048 C 
HETATM   35  C   UNK N   1      75.183  39.625 -11.893  0.00  0.00    -0.018 C 
HETATM   36  C   UNK N   1      74.204  39.746 -13.096  0.00  0.00     0.045 C 
HETATM   37  C   UNK N   1      75.389  41.058 -11.353  0.00  0.00     0.020 C 
HETATM   38  C   UNK N   1      76.559  39.089 -12.357  0.00  0.00     0.020 C 
HETATM   39  C   UNK N   1      73.740  38.378 -13.573  0.00  0.00     0.123 C 
HETATM   40  C   UNK N   1      72.952  37.712 -12.446  0.00  0.00     0.066 C 
HETATM   41  C   UNK N   1      73.597  37.803 -11.074  0.00  0.00    -0.074 C 
HETATM   42  C   UNK N   1      72.941  36.944 -10.010  0.00  0.00     0.044 C 
BRANCH  39  43
HETATM   43  O   UNK N   1      72.908  38.495 -14.698  0.00  0.00    -0.395 OA
HETATM   44  H   UNK N   1      72.502  39.400 -14.664  0.00  0.00     0.210 HD
ENDBRANCH  39  43
ENDBRANCH  33  34
ENDBRANCH  30  32
ENDBRANCH  28  29
ENDBRANCH  25  27
ENDBRANCH   2  24
TORSDOF 12
ENDMDL
MODEL 4
REMARK VINA RESULT:      -5.9      1.938     19.010
REMARK  12 active torsions:
REMARK  status: ('A' for Active; 'I' for Inactive)
REMARK    1  A    between atoms: O_1  and  C_6 
REMARK    2  A    between atoms: O_2  and  C_13 
REMARK    3  A    between atoms: C_4  and  C_15 
REMARK    4  A    between atoms: C_14  and  C_22 
REMARK    5  A    between atoms: C_21  and  C_24 
REMARK    6  A    between atoms: C_25  and  C_27 
REMARK    7  A    between atoms: C_28  and  C_31 
REMARK    8  A    between atoms: C_30  and  C_32 
REMARK    9  A    between atoms: C_33  and  C_34 
REMARK   10  A    between atoms: C_35  and  C_36 
REMARK   11  A    between atoms: C_38  and  C_41 
REMARK   12  A    between atoms: C_39  and  C_42 
ROOT
HETATM    1  C   UNK N   1      76.928  36.399   0.252  0.00  0.00     0.001 C 
HETATM    2  C   UNK N   1      76.960  37.193   1.332  0.00  0.00     0.001 C 
ENDROOT
BRANCH   1   3
HETATM    3  C   UNK N   1      76.473  36.922  -1.069  0.00  0.00     0.007 C 
HETATM    4  C   UNK N   1      77.238  36.882  -2.190  0.00  0.00    -0.062 C 
HETATM    5  C   UNK N   1      78.618  36.265  -2.160  0.00  0.00     0.048 C 
BRANCH   4   6
HETATM    6  C   UNK N   1      76.763  37.419  -3.505  0.00  0.00     0.007 C 
HETATM    7  C   UNK N   1      77.348  38.427  -4.185  0.00  0.00     0.001 C 
BRANCH   7   8
HETATM    8  C   UNK N   1      76.765  38.864  -5.484  0.00  0.00     0.007 C 
HETATM    9  C   UNK N   1      77.124  38.412  -6.714  0.00  0.00    -0.062 C 
HETATM   10  C   UNK N   1      78.159  37.324  -6.928  0.00  0.00     0.048 C 
BRANCH   9  11
HETATM   11  C   UNK N   1      76.439  39.023  -7.895  0.00  0.00     0.003 C 
HETATM   12  C   UNK N   1      75.618  38.339  -8.716  0.00  0.00    -0.016 C 
BRANCH  12  13
HETATM   13  C   UNK N   1      74.970  39.009  -9.916  0.00  0.00     0.044 C 
HETATM   14  C   UNK N   1      73.402  39.044  -9.853  0.00  0.00    -0.035 C 
HETATM   15  C   UNK N   1      72.870  37.618 -10.120  0.00  0.00     0.045 C 
HETATM   16  C   UNK N   1      72.916  39.529  -8.468  0.00  0.00     0.016 C 
HETATM   17  C   UNK N   1      72.859  40.050 -10.903  0.00  0.00     0.016 C 
HETATM   18  C   UNK N   1      73.288  37.083 -11.504  0.00  0.00     0.142 C 
HETATM   19  C   UNK N   1      74.717  37.437 -11.872  0.00  0.00     0.007 C 
HETATM   20  C   UNK N   1      75.487  38.295 -11.159  0.00  0.00    -0.077 C 
HETATM   21  C   UNK N   1      76.908  38.556 -11.591  0.00  0.00     0.044 C 
BRANCH  18  22
HETATM   22  O   UNK N   1      72.425  37.577 -12.495  0.00  0.00    -0.392 OA
HETATM   23  H   UNK N   1      71.938  38.347 -12.099  0.00  0.00     0.210 HD
ENDBRANCH  18  22
ENDBRANCH  12  13
ENDBRANCH   9  11
ENDBRANCH   7   8
ENDBRANCH   4   6
ENDBRANCH   1   3
BRANCH   2  24
HETATM   24  C   UNK N   1      77.460  36.680   2.641  0.00  0.00     0.007 C 
HETATM   25  C   UNK N   1      77.704  37.432   3.744  0.00  0.00    -0.062 C 
HETATM   26  C   UNK N   1      77.452  38.931   3.795  0.00  0.00     0.048 C 
BRANCH  25  27
HETATM   27  C   UNK N   1      78.266  36.752   4.959  0.00  0.00     0.007 C 
HETATM   28  C   UNK N   1      78.142  37.251   6.204  0.00  0.00     0.001 C 
BRANCH  28  29
HETATM   29  C   UNK N   1      78.738  36.562   7.381  0.00  0.00     0.007 C 
HETATM   30  C   UNK N   1      78.522  36.964   8.661  0.00  0.00    -0.062 C 
HETATM   31  C   UNK N   1      77.632  38.149   8.963  0.00  0.00     0.048 C 
BRANCH  30  32
HETATM   32  C   UNK N   1      79.110  36.240   9.828  0.00  0.00     0.007 C 
HETATM   33  C   UNK N   1      78.383  35.722  10.841  0.00  0.00     0.009 C 
BRANCH  33  34
HETATM   34  C   UNK N   1      79.027  34.994  11.986  0.00  0.00    -0.048 C 
HETATM   35  C   UNK N   1      79.696  33.631  11.685  0.00  0.00    -0.018 C 
HETATM   36  C   UNK N   1      80.016  32.843  12.988  0.00  0.00     0.045 C 
HETATM   37  C   UNK N   1      78.793  32.711  10.831  0.00  0.00     0.020 C 
HETATM   38  C   UNK N   1      80.987  33.911  10.879  0.00  0.00     0.020 C 
HETATM   39  C   UNK N   1      80.709  33.728  14.013  0.00  0.00     0.123 C 
HETATM   40  C   UNK N   1      79.751  34.847  14.416  0.00  0.00     0.066 C 
HETATM   41  C   UNK N   1      79.039  35.527  13.259  0.00  0.00    -0.074 C 
HETATM   42  C   UNK N   1      78.278  36.784  13.637  0.00  0.00     0.044 C 
BRANCH  39  43
HETATM   43  O   UNK N   1      81.052  32.993  15.159  0.00  0.00    -0.395 OA
HETATM   44  H   UNK N   1      81.439  33.635  15.809  0.00  0.00     0.210 HD
ENDBRANCH  39  43
ENDBRANCH  33  34
ENDBRANCH  30  32
ENDBRANCH  28  29
ENDBRANCH  25  27
ENDBRANCH   2  24
TORSDOF 12
ENDMDL
MODEL 5
REMARK VINA RESULT:      -5.9      1.303      2.411
REMARK  12 active torsions:
REMARK  status: ('A' for Active; 'I' for Inactive)
REMARK    1  A    between atoms: O_1  and  C_6 
REMARK    2  A    between atoms: O_2  and  C_13 
REMARK    3  A    between atoms: C_4  and  C_15 
REMARK    4  A    between atoms: C_14  and  C_22 
REMARK    5  A    between atoms: C_21  and  C_24 
REMARK    6  A    between atoms: C_25  and  C_27 
REMARK    7  A    between atoms: C_28  and  C_31 
REMARK    8  A    between atoms: C_30  and  C_32 
REMARK    9  A    between atoms: C_33  and  C_34 
REMARK   10  A    between atoms: C_35  and  C_36 
REMARK   11  A    between atoms: C_38  and  C_41 
REMARK   12  A    between atoms: C_39  and  C_42 
ROOT
HETATM    1  C   UNK N   1      76.347  37.067  -0.864  0.00  0.00     0.001 C 
HETATM    2  C   UNK N   1      77.202  37.496  -1.804  0.00  0.00     0.001 C 
ENDROOT
BRANCH   1   3
HETATM    3  C   UNK N   1      76.770  36.953   0.561  0.00  0.00     0.007 C 
HETATM    4  C   UNK N   1      76.875  38.020   1.395  0.00  0.00    -0.062 C 
HETATM    5  C   UNK N   1      76.533  39.412   0.914  0.00  0.00     0.048 C 
BRANCH   4   6
HETATM    6  C   UNK N   1      77.308  37.882   2.822  0.00  0.00     0.007 C 
HETATM    7  C   UNK N   1      77.671  36.724   3.412  0.00  0.00     0.001 C 
BRANCH   7   8
HETATM    8  C   UNK N   1      78.078  36.732   4.845  0.00  0.00     0.007 C 
HETATM    9  C   UNK N   1      79.163  36.106   5.371  0.00  0.00    -0.062 C 
HETATM   10  C   UNK N   1      80.169  35.343   4.532  0.00  0.00     0.048 C 
BRANCH   9  11
HETATM   11  C   UNK N   1      79.360  36.207   6.851  0.00  0.00     0.003 C 
HETATM   12  C   UNK N   1      79.619  37.363   7.491  0.00  0.00    -0.016 C 
BRANCH  12  13
HETATM   13  C   UNK N   1      79.835  37.398   8.995  0.00  0.00     0.044 C 
HETATM   14  C   UNK N   1      81.338  37.260   9.424  0.00  0.00    -0.035 C 
HETATM   15  C   UNK N   1      81.779  35.796   9.200  0.00  0.00     0.045 C 
HETATM   16  C   UNK N   1      82.237  38.206   8.594  0.00  0.00     0.016 C 
HETATM   17  C   UNK N   1      81.497  37.673  10.911  0.00  0.00     0.016 C 
HETATM   18  C   UNK N   1      80.946  34.798  10.029  0.00  0.00     0.142 C 
HETATM   19  C   UNK N   1      79.470  35.145  10.068  0.00  0.00     0.007 C 
HETATM   20  C   UNK N   1      78.957  36.308   9.597  0.00  0.00    -0.077 C 
HETATM   21  C   UNK N   1      77.468  36.543   9.653  0.00  0.00     0.044 C 
BRANCH  18  22
HETATM   22  O   UNK N   1      81.436  34.731  11.343  0.00  0.00    -0.392 OA
HETATM   23  H   UNK N   1      81.593  35.666  11.642  0.00  0.00     0.210 HD
ENDBRANCH  18  22
ENDBRANCH  12  13
ENDBRANCH   9  11
ENDBRANCH   7   8
ENDBRANCH   4   6
ENDBRANCH   1   3
BRANCH   2  24
HETATM   24  C   UNK N   1      76.762  37.655  -3.221  0.00  0.00     0.007 C 
HETATM   25  C   UNK N   1      77.381  38.414  -4.161  0.00  0.00    -0.062 C 
HETATM   26  C   UNK N   1      78.661  39.188  -3.887  0.00  0.00     0.048 C 
BRANCH  25  27
HETATM   27  C   UNK N   1      76.759  38.505  -5.524  0.00  0.00     0.007 C 
HETATM   28  C   UNK N   1      77.330  37.988  -6.629  0.00  0.00     0.001 C 
BRANCH  28  29
HETATM   29  C   UNK N   1      76.696  38.124  -7.969  0.00  0.00     0.007 C 
HETATM   30  C   UNK N   1      76.993  37.307  -9.014  0.00  0.00    -0.062 C 
HETATM   31  C   UNK N   1      77.993  36.183  -8.861  0.00  0.00     0.048 C 
BRANCH  30  32
HETATM   32  C   UNK N   1      76.323  37.446 -10.342  0.00  0.00     0.007 C 
HETATM   33  C   UNK N   1      75.295  38.285 -10.587  0.00  0.00     0.009 C 
BRANCH  33  34
HETATM   34  C   UNK N   1      74.665  38.390 -11.946  0.00  0.00    -0.048 C 
HETATM   35  C   UNK N   1      75.140  39.536 -12.871  0.00  0.00    -0.018 C 
HETATM   36  C   UNK N   1      74.188  39.732 -14.086  0.00  0.00     0.045 C 
HETATM   37  C   UNK N   1      75.195  40.896 -12.138  0.00  0.00     0.020 C 
HETATM   38  C   UNK N   1      76.572  39.192 -13.346  0.00  0.00     0.020 C 
HETATM   39  C   UNK N   1      73.868  38.405 -14.758  0.00  0.00     0.123 C 
HETATM   40  C   UNK N   1      73.114  37.525 -13.762  0.00  0.00     0.066 C 
HETATM   41  C   UNK N   1      73.708  37.487 -12.365  0.00  0.00    -0.074 C 
HETATM   42  C   UNK N   1      73.106  36.436 -11.451  0.00  0.00     0.044 C 
BRANCH  39  43
HETATM   43  O   UNK N   1      73.060  38.599 -15.891  0.00  0.00    -0.395 OA
HETATM   44  H   UNK N   1      72.204  38.126 -15.719  0.00  0.00     0.210 HD
ENDBRANCH  39  43
ENDBRANCH  33  34
ENDBRANCH  30  32
ENDBRANCH  28  29
ENDBRANCH  25  27
ENDBRANCH   2  24
TORSDOF 12
ENDMDL
MODEL 6
REMARK VINA RESULT:      -5.9      1.798     18.766
REMARK  12 active torsions:
REMARK  status: ('A' for Active; 'I' for Inactive)
REMARK    1  A    between atoms: O_1  and  C_6 
REMARK    2  A    between atoms: O_2  and  C_13 
REMARK    3  A    between atoms: C_4  and  C_15 
REMARK    4  A    between atoms: C_14  and  C_22 
REMARK    5  A    between atoms: C_21  and  C_24 
REMARK    6  A    between atoms: C_25  and  C_27 
REMARK    7  A    between atoms: C_28  and  C_31 
REMARK    8  A    between atoms: C_30  and  C_32 
REMARK    9  A    between atoms: C_33  and  C_34 
REMARK   10  A    between atoms: C_35  and  C_36 
REMARK   11  A    between atoms: C_38  and  C_41 
REMARK   12  A    between atoms: C_39  and  C_42 
ROOT
HETATM    1  C   UNK N   1      75.204  39.348  -1.557  0.00  0.00     0.001 C 
HETATM    2  C   UNK N   1      76.324  38.800  -1.062  0.00  0.00     0.001 C 
ENDROOT
BRANCH   1   3
HETATM    3  C   UNK N   1      74.862  39.215  -3.002  0.00  0.00     0.007 C 
HETATM    4  C   UNK N   1      74.936  40.245  -3.884  0.00  0.00    -0.062 C 
HETATM    5  C   UNK N   1      75.406  41.610  -3.436  0.00  0.00     0.048 C 
BRANCH   4   6
HETATM    6  C   UNK N   1      74.582  40.089  -5.330  0.00  0.00     0.007 C 
HETATM    7  C   UNK N   1      74.667  41.066  -6.257  0.00  0.00     0.001 C 
BRANCH   7   8
HETATM    8  C   UNK N   1      74.277  40.772  -7.664  0.00  0.00     0.007 C 
HETATM    9  C   UNK N   1      73.008  40.629  -8.128  0.00  0.00    -0.062 C 
HETATM   10  C   UNK N   1      71.780  40.815  -7.258  0.00  0.00     0.048 C 
BRANCH   9  11
HETATM   11  C   UNK N   1      72.843  40.287  -9.576  0.00  0.00     0.003 C 
HETATM   12  C   UNK N   1      73.723  39.538 -10.269  0.00  0.00    -0.016 C 
BRANCH  12  13
HETATM   13  C   UNK N   1      73.514  39.246 -11.745  0.00  0.00     0.044 C 
HETATM   14  C   UNK N   1      73.592  37.721 -12.108  0.00  0.00    -0.035 C 
HETATM   15  C   UNK N   1      75.069  37.276 -12.032  0.00  0.00     0.045 C 
HETATM   16  C   UNK N   1      72.744  36.878 -11.128  0.00  0.00     0.016 C 
HETATM   17  C   UNK N   1      73.009  37.491 -13.527  0.00  0.00     0.016 C 
HETATM   18  C   UNK N   1      75.969  38.053 -13.013  0.00  0.00     0.142 C 
HETATM   19  C   UNK N   1      75.629  39.530 -13.089  0.00  0.00     0.007 C 
HETATM   20  C   UNK N   1      74.531  40.079 -12.514  0.00  0.00    -0.077 C 
HETATM   21  C   UNK N   1      74.300  41.566 -12.621  0.00  0.00     0.044 C 
BRANCH  18  22
HETATM   22  O   UNK N   1      75.881  37.496 -14.299  0.00  0.00    -0.392 OA
HETATM   23  H   UNK N   1      76.811  37.369 -14.624  0.00  0.00     0.210 HD
ENDBRANCH  18  22
ENDBRANCH  12  13
ENDBRANCH   9  11
ENDBRANCH   7   8
ENDBRANCH   4   6
ENDBRANCH   1   3
BRANCH   2  24
HETATM   24  C   UNK N   1      76.640  38.894   0.394  0.00  0.00     0.007 C 
HETATM   25  C   UNK N   1      76.955  37.851   1.204  0.00  0.00    -0.062 C 
HETATM   26  C   UNK N   1      77.067  36.419   0.703  0.00  0.00     0.048 C 
BRANCH  25  27
HETATM   27  C   UNK N   1      77.183  38.125   2.662  0.00  0.00     0.007 C 
HETATM   28  C   UNK N   1      77.697  37.215   3.510  0.00  0.00     0.001 C 
BRANCH  28  29
HETATM   29  C   UNK N   1      77.882  37.515   4.956  0.00  0.00     0.007 C 
HETATM   30  C   UNK N   1      78.663  36.761   5.774  0.00  0.00    -0.062 C 
HETATM   31  C   UNK N   1      79.414  35.561   5.242  0.00  0.00     0.048 C 
BRANCH  30  32
HETATM   32  C   UNK N   1      78.855  37.098   7.217  0.00  0.00     0.007 C 
HETATM   33  C   UNK N   1      78.427  36.326   8.238  0.00  0.00     0.009 C 
BRANCH  33  34
HETATM   34  C   UNK N   1      78.657  36.711   9.672  0.00  0.00    -0.048 C 
HETATM   35  C   UNK N   1      79.559  35.789  10.527  0.00  0.00    -0.018 C 
HETATM   36  C   UNK N   1      79.440  36.109  12.045  0.00  0.00     0.045 C 
HETATM   37  C   UNK N   1      79.191  34.296  10.366  0.00  0.00     0.020 C 
HETATM   38  C   UNK N   1      81.016  35.976  10.038  0.00  0.00     0.020 C 
HETATM   39  C   UNK N   1      79.554  37.603  12.307  0.00  0.00     0.123 C 
HETATM   40  C   UNK N   1      78.379  38.306  11.629  0.00  0.00     0.066 C 
HETATM   41  C   UNK N   1      78.098  37.855  10.206  0.00  0.00    -0.074 C 
HETATM   42  C   UNK N   1      77.096  38.714   9.458  0.00  0.00     0.044 C 
BRANCH  39  43
HETATM   43  O   UNK N   1      79.509  37.875  13.683  0.00  0.00    -0.395 OA
HETATM   44  H   UNK N   1      78.682  38.399  13.847  0.00  0.00     0.210 HD
ENDBRANCH  39  43
ENDBRANCH  33  34
ENDBRANCH  30  32
ENDBRANCH  28  29
ENDBRANCH  25  27
ENDBRANCH   2  24
TORSDOF 12
ENDMDL
MODEL 7
REMARK VINA RESULT:      -5.8      1.241      2.187
REMARK  12 active torsions:
REMARK  status: ('A' for Active; 'I' for Inactive)
REMARK    1  A    between atoms: O_1  and  C_6 
REMARK    2  A    between atoms: O_2  and  C_13 
REMARK    3  A    between atoms: C_4  and  C_15 
REMARK    4  A    between atoms: C_14  and  C_22 
REMARK    5  A    between atoms: C_21  and  C_24 
REMARK    6  A    between atoms: C_25  and  C_27 
REMARK    7  A    between atoms: C_28  and  C_31 
REMARK    8  A    between atoms: C_30  and  C_32 
REMARK    9  A    between atoms: C_33  and  C_34 
REMARK   10  A    between atoms: C_35  and  C_36 
REMARK   11  A    between atoms: C_38  and  C_41 
REMARK   12  A    between atoms: C_39  and  C_42 
ROOT
HETATM    1  C   UNK N   1      76.601  36.277  -0.356  0.00  0.00     0.001 C 
HETATM    2  C   UNK N   1      77.512  36.197  -1.337  0.00  0.00     0.001 C 
ENDROOT
BRANCH   1   3
HETATM    3  C   UNK N   1      77.009  36.194   1.076  0.00  0.00     0.007 C 
HETATM    4  C   UNK N   1      77.168  37.284   1.871  0.00  0.00    -0.062 C 
HETATM    5  C   UNK N   1      76.907  38.673   1.335  0.00  0.00     0.048 C 
BRANCH   4   6
HETATM    6  C   UNK N   1      77.585  37.176   3.305  0.00  0.00     0.007 C 
HETATM    7  C   UNK N   1      77.697  38.216   4.158  0.00  0.00     0.001 C 
BRANCH   7   8
HETATM    8  C   UNK N   1      78.127  37.964   5.561  0.00  0.00     0.007 C 
HETATM    9  C   UNK N   1      77.969  38.813   6.610  0.00  0.00    -0.062 C 
HETATM   10  C   UNK N   1      77.256  40.147   6.499  0.00  0.00     0.048 C 
BRANCH   9  11
HETATM   11  C   UNK N   1      78.519  38.378   7.932  0.00  0.00     0.003 C 
HETATM   12  C   UNK N   1      79.835  38.225   8.177  0.00  0.00    -0.016 C 
BRANCH  12  13
HETATM   13  C   UNK N   1      80.332  37.756   9.534  0.00  0.00     0.044 C 
HETATM   14  C   UNK N   1      80.607  36.213   9.611  0.00  0.00    -0.035 C 
HETATM   15  C   UNK N   1      79.249  35.475   9.638  0.00  0.00     0.045 C 
HETATM   16  C   UNK N   1      81.431  35.739   8.392  0.00  0.00     0.016 C 
HETATM   17  C   UNK N   1      81.444  35.893  10.877  0.00  0.00     0.016 C 
HETATM   18  C   UNK N   1      78.387  35.875  10.852  0.00  0.00     0.142 C 
HETATM   19  C   UNK N   1      78.447  37.359  11.161  0.00  0.00     0.007 C 
HETATM   20  C   UNK N   1      79.311  38.217  10.567  0.00  0.00    -0.077 C 
HETATM   21  C   UNK N   1      79.268  39.682  10.921  0.00  0.00     0.044 C 
BRANCH  18  22
HETATM   22  O   UNK N   1      78.787  35.154  11.989  0.00  0.00    -0.392 OA
HETATM   23  H   UNK N   1      77.999  35.103  12.592  0.00  0.00     0.210 HD
ENDBRANCH  18  22
ENDBRANCH  12  13
ENDBRANCH   9  11
ENDBRANCH   7   8
ENDBRANCH   4   6
ENDBRANCH   1   3
BRANCH   2  24
HETATM   24  C   UNK N   1      77.106  36.329  -2.767  0.00  0.00     0.007 C 
HETATM   25  C   UNK N   1      77.931  36.650  -3.797  0.00  0.00    -0.062 C 
HETATM   26  C   UNK N   1      79.423  36.884  -3.619  0.00  0.00     0.048 C 
BRANCH  25  27
HETATM   27  C   UNK N   1      77.334  36.800  -5.166  0.00  0.00     0.007 C 
HETATM   28  C   UNK N   1      77.812  37.659  -6.086  0.00  0.00     0.001 C 
BRANCH  28  29
HETATM   29  C   UNK N   1      77.175  37.800  -7.424  0.00  0.00     0.007 C 
HETATM   30  C   UNK N   1      76.324  38.813  -7.736  0.00  0.00    -0.062 C 
HETATM   31  C   UNK N   1      75.986  39.883  -6.722  0.00  0.00     0.048 C 
BRANCH  30  32
HETATM   32  C   UNK N   1      75.720  38.949  -9.095  0.00  0.00     0.007 C 
HETATM   33  C   UNK N   1      75.566  37.925  -9.961  0.00  0.00     0.009 C 
BRANCH  33  34
HETATM   34  C   UNK N   1      74.942  38.118 -11.313  0.00  0.00    -0.048 C 
HETATM   35  C   UNK N   1      73.472  37.667 -11.496  0.00  0.00    -0.018 C 
HETATM   36  C   UNK N   1      73.067  37.610 -12.997  0.00  0.00     0.045 C 
HETATM   37  C   UNK N   1      73.216  36.255 -10.922  0.00  0.00     0.020 C 
HETATM   38  C   UNK N   1      72.577  38.665 -10.723  0.00  0.00     0.020 C 
HETATM   39  C   UNK N   1      73.487  38.874 -13.732  0.00  0.00     0.123 C 
HETATM   40  C   UNK N   1      75.011  38.969 -13.705  0.00  0.00     0.066 C 
HETATM   41  C   UNK N   1      75.645  38.692 -12.353  0.00  0.00    -0.074 C 
HETATM   42  C   UNK N   1      77.125  39.018 -12.270  0.00  0.00     0.044 C 
BRANCH  39  43
HETATM   43  O   UNK N   1      73.061  38.840 -15.070  0.00  0.00    -0.395 OA
HETATM   44  H   UNK N   1      73.781  39.254 -15.613  0.00  0.00     0.210 HD
ENDBRANCH  39  43
ENDBRANCH  33  34
ENDBRANCH  30  32
ENDBRANCH  28  29
ENDBRANCH  25  27
ENDBRANCH   2  24
TORSDOF 12
ENDMDL
MODEL 8
REMARK VINA RESULT:      -5.8      9.939     16.778
REMARK  12 active torsions:
REMARK  status: ('A' for Active; 'I' for Inactive)
REMARK    1  A    between atoms: O_1  and  C_6 
REMARK    2  A    between atoms: O_2  and  C_13 
REMARK    3  A    between atoms: C_4  and  C_15 
REMARK    4  A    between atoms: C_14  and  C_22 
REMARK    5  A    between atoms: C_21  and  C_24 
REMARK    6  A    between atoms: C_25  and  C_27 
REMARK    7  A    between atoms: C_28  and  C_31 
REMARK    8  A    between atoms: C_30  and  C_32 
REMARK    9  A    between atoms: C_33  and  C_34 
REMARK   10  A    between atoms: C_35  and  C_36 
REMARK   11  A    between atoms: C_38  and  C_41 
REMARK   12  A    between atoms: C_39  and  C_42 
ROOT
HETATM    1  C   UNK N   1      80.253  31.500   3.453  0.00  0.00     0.001 C 
HETATM    2  C   UNK N   1      81.090  32.544   3.541  0.00  0.00     0.001 C 
ENDROOT
BRANCH   1   3
HETATM    3  C   UNK N   1      80.756  30.146   3.084  0.00  0.00     0.007 C 
HETATM    4  C   UNK N   1      80.403  29.013   3.745  0.00  0.00    -0.062 C 
HETATM    5  C   UNK N   1      79.435  29.068   4.905  0.00  0.00     0.048 C 
BRANCH   4   6
HETATM    6  C   UNK N   1      80.925  27.664   3.359  0.00  0.00     0.007 C 
HETATM    7  C   UNK N   1      81.839  26.960   4.059  0.00  0.00     0.001 C 
BRANCH   7   8
HETATM    8  C   UNK N   1      82.273  25.627   3.556  0.00  0.00     0.007 C 
HETATM    9  C   UNK N   1      82.234  24.459   4.249  0.00  0.00    -0.062 C 
HETATM   10  C   UNK N   1      81.667  24.345   5.652  0.00  0.00     0.048 C 
BRANCH   9  11
HETATM   11  C   UNK N   1      82.765  23.238   3.566  0.00  0.00     0.003 C 
HETATM   12  C   UNK N   1      82.091  22.075   3.490  0.00  0.00    -0.016 C 
BRANCH  12  13
HETATM   13  C   UNK N   1      82.695  20.861   2.803  0.00  0.00     0.044 C 
HETATM   14  C   UNK N   1      81.801  20.270   1.657  0.00  0.00    -0.035 C 
HETATM   15  C   UNK N   1      80.596  19.547   2.300  0.00  0.00     0.045 C 
HETATM   16  C   UNK N   1      81.294  21.390   0.720  0.00  0.00     0.016 C 
HETATM   17  C   UNK N   1      82.640  19.296   0.788  0.00  0.00     0.016 C 
HETATM   18  C   UNK N   1      81.028  18.390   3.223  0.00  0.00     0.142 C 
HETATM   19  C   UNK N   1      82.246  18.724   4.064  0.00  0.00     0.007 C 
HETATM   20  C   UNK N   1      82.998  19.838   3.891  0.00  0.00    -0.077 C 
HETATM   21  C   UNK N   1      84.171  20.094   4.802  0.00  0.00     0.044 C 
BRANCH  18  22
HETATM   22  O   UNK N   1      81.297  17.239   2.464  0.00  0.00    -0.392 OA
HETATM   23  H   UNK N   1      81.867  17.522   1.701  0.00  0.00     0.210 HD
ENDBRANCH  18  22
ENDBRANCH  12  13
ENDBRANCH   9  11
ENDBRANCH   7   8
ENDBRANCH   4   6
ENDBRANCH   1   3
BRANCH   2  24
HETATM   24  C   UNK N   1      80.592  33.888   3.958  0.00  0.00     0.007 C 
HETATM   25  C   UNK N   1      80.353  34.935   3.127  0.00  0.00    -0.062 C 
HETATM   26  C   UNK N   1      80.530  34.851   1.619  0.00  0.00     0.048 C 
BRANCH  25  27
HETATM   27  C   UNK N   1      79.913  36.237   3.731  0.00  0.00     0.007 C 
HETATM   28  C   UNK N   1      78.761  36.378   4.414  0.00  0.00     0.001 C 
BRANCH  28  29
HETATM   29  C   UNK N   1      78.344  37.692   4.974  0.00  0.00     0.007 C 
HETATM   30  C   UNK N   1      78.366  37.970   6.304  0.00  0.00    -0.062 C 
HETATM   31  C   UNK N   1      78.841  36.940   7.305  0.00  0.00     0.048 C 
BRANCH  30  32
HETATM   32  C   UNK N   1      77.969  39.307   6.840  0.00  0.00     0.007 C 
HETATM   33  C   UNK N   1      77.018  39.493   7.779  0.00  0.00     0.009 C 
BRANCH  33  34
HETATM   34  C   UNK N   1      76.666  40.862   8.289  0.00  0.00    -0.048 C 
HETATM   35  C   UNK N   1      77.267  41.298   9.647  0.00  0.00    -0.018 C 
HETATM   36  C   UNK N   1      76.568  42.570  10.208  0.00  0.00     0.045 C 
HETATM   37  C   UNK N   1      77.120  40.206  10.732  0.00  0.00     0.020 C 
HETATM   38  C   UNK N   1      78.778  41.553   9.430  0.00  0.00     0.020 C 
HETATM   39  C   UNK N   1      76.443  43.648   9.143  0.00  0.00     0.123 C 
HETATM   40  C   UNK N   1      75.543  43.124   8.024  0.00  0.00     0.066 C 
HETATM   41  C   UNK N   1      75.850  41.709   7.567  0.00  0.00    -0.074 C 
HETATM   42  C   UNK N   1      75.122  41.281   6.306  0.00  0.00     0.044 C 
BRANCH  39  43
HETATM   43  O   UNK N   1      75.869  44.814   9.674  0.00  0.00    -0.395 OA
HETATM   44  H   UNK N   1      74.975  44.913   9.255  0.00  0.00     0.210 HD
ENDBRANCH  39  43
ENDBRANCH  33  34
ENDBRANCH  30  32
ENDBRANCH  28  29
ENDBRANCH  25  27
ENDBRANCH   2  24
TORSDOF 12
ENDMDL
MODEL 9
REMARK VINA RESULT:      -5.8      5.524      7.261
REMARK  12 active torsions:
REMARK  status: ('A' for Active; 'I' for Inactive)
REMARK    1  A    between atoms: O_1  and  C_6 
REMARK    2  A    between atoms: O_2  and  C_13 
REMARK    3  A    between atoms: C_4  and  C_15 
REMARK    4  A    between atoms: C_14  and  C_22 
REMARK    5  A    between atoms: C_21  and  C_24 
REMARK    6  A    between atoms: C_25  and  C_27 
REMARK    7  A    between atoms: C_28  and  C_31 
REMARK    8  A    between atoms: C_30  and  C_32 
REMARK    9  A    between atoms: C_33  and  C_34 
REMARK   10  A    between atoms: C_35  and  C_36 
REMARK   11  A    between atoms: C_38  and  C_41 
REMARK   12  A    between atoms: C_39  and  C_42 
ROOT
HETATM    1  C   UNK N   1      78.172  36.333   4.488  0.00  0.00     0.001 C 
HETATM    2  C   UNK N   1      77.602  37.080   3.532  0.00  0.00     0.001 C 
ENDROOT
BRANCH   1   3
HETATM    3  C   UNK N   1      78.118  36.750   5.919  0.00  0.00     0.007 C 
HETATM    4  C   UNK N   1      79.194  36.715   6.746  0.00  0.00    -0.062 C 
HETATM    5  C   UNK N   1      80.544  36.261   6.238  0.00  0.00     0.048 C 
BRANCH   4   6
HETATM    6  C   UNK N   1      79.116  37.133   8.182  0.00  0.00     0.007 C 
HETATM    7  C   UNK N   1      78.427  36.480   9.142  0.00  0.00     0.001 C 
BRANCH   7   8
HETATM    8  C   UNK N   1      78.433  37.013  10.533  0.00  0.00     0.007 C 
HETATM    9  C   UNK N   1      78.456  36.272  11.672  0.00  0.00    -0.062 C 
HETATM   10  C   UNK N   1      78.543  34.758  11.676  0.00  0.00     0.048 C 
BRANCH   9  11
HETATM   11  C   UNK N   1      78.409  37.013  12.971  0.00  0.00     0.003 C 
HETATM   12  C   UNK N   1      78.893  38.260  13.135  0.00  0.00    -0.016 C 
BRANCH  12  13
HETATM   13  C   UNK N   1      78.840  38.951  14.487  0.00  0.00     0.044 C 
HETATM   14  C   UNK N   1      77.743  40.069  14.585  0.00  0.00    -0.035 C 
HETATM   15  C   UNK N   1      78.214  41.290  13.764  0.00  0.00     0.045 C 
HETATM   16  C   UNK N   1      76.389  39.563  14.034  0.00  0.00     0.016 C 
HETATM   17  C   UNK N   1      77.514  40.448  16.072  0.00  0.00     0.016 C 
HETATM   18  C   UNK N   1      79.544  41.871  14.283  0.00  0.00     0.142 C 
HETATM   19  C   UNK N   1      80.542  40.801  14.686  0.00  0.00     0.007 C 
HETATM   20  C   UNK N   1      80.239  39.483  14.772  0.00  0.00    -0.077 C 
HETATM   21  C   UNK N   1      81.313  38.495  15.151  0.00  0.00     0.044 C 
BRANCH  18  22
HETATM   22  O   UNK N   1      79.310  42.715  15.380  0.00  0.00    -0.392 OA
HETATM   23  H   UNK N   1      79.922  42.424  16.106  0.00  0.00     0.210 HD
ENDBRANCH  18  22
ENDBRANCH  12  13
ENDBRANCH   9  11
ENDBRANCH   7   8
ENDBRANCH   4   6
ENDBRANCH   1   3
BRANCH   2  24
HETATM   24  C   UNK N   1      77.615  36.637   2.107  0.00  0.00     0.007 C 
HETATM   25  C   UNK N   1      77.178  37.365   1.048  0.00  0.00    -0.062 C 
HETATM   26  C   UNK N   1      76.642  38.781   1.183  0.00  0.00     0.048 C 
BRANCH  25  27
HETATM   27  C   UNK N   1      77.210  36.731  -0.313  0.00  0.00     0.007 C 
HETATM   28  C   UNK N   1      77.468  35.424  -0.509  0.00  0.00     0.001 C 
BRANCH  28  29
HETATM   29  C   UNK N   1      77.520  34.838  -1.876  0.00  0.00     0.007 C 
HETATM   30  C   UNK N   1      78.667  34.374  -2.439  0.00  0.00    -0.062 C 
HETATM   31  C   UNK N   1      79.975  34.416  -1.683  0.00  0.00     0.048 C 
BRANCH  30  32
HETATM   32  C   UNK N   1      78.688  33.763  -3.803  0.00  0.00     0.007 C 
HETATM   33  C   UNK N   1      78.885  32.450  -4.041  0.00  0.00     0.009 C 
BRANCH  33  34
HETATM   34  C   UNK N   1      78.888  31.889  -5.434  0.00  0.00    -0.048 C 
HETATM   35  C   UNK N   1      77.592  31.205  -5.935  0.00  0.00    -0.018 C 
HETATM   36  C   UNK N   1      77.835  30.387  -7.235  0.00  0.00     0.045 C 
HETATM   37  C   UNK N   1      77.015  30.214  -4.898  0.00  0.00     0.020 C 
HETATM   38  C   UNK N   1      76.539  32.314  -6.172  0.00  0.00     0.020 C 
HETATM   39  C   UNK N   1      78.616  31.195  -8.260  0.00  0.00     0.123 C 
HETATM   40  C   UNK N   1      79.998  31.503  -7.685  0.00  0.00     0.066 C 
HETATM   41  C   UNK N   1      79.998  31.993  -6.248  0.00  0.00    -0.074 C 
HETATM   42  C   UNK N   1      81.334  32.523  -5.761  0.00  0.00     0.044 C 
BRANCH  39  43
HETATM   43  O   UNK N   1      78.775  30.472  -9.453  0.00  0.00    -0.395 OA
HETATM   44  H   UNK N   1      78.283  29.617  -9.341  0.00  0.00     0.210 HD
ENDBRANCH  39  43
ENDBRANCH  33  34
ENDBRANCH  30  32
ENDBRANCH  28  29
ENDBRANCH  25  27
ENDBRANCH   2  24
TORSDOF 12
ENDMDL
