MODEL 1
REMARK VINA RESULT:      -4.5      0.000      0.000
REMARK  1 active torsions:
REMARK  status: ('A' for Active; 'I' for Inactive)
REMARK    1  A    between atoms: O_2  and  C_9 
ROOT
HETATM    1  O   UNK N   1      50.371  15.431  12.942  0.00  0.00    -0.275 OA
HETATM    2  O   UNK N   1      49.663  17.418  13.592  0.00  0.00    -0.260 OA
HETATM    3  C   UNK N   1      48.949  13.534  13.150  0.00  0.00    -0.002 A 
HETATM    4  C   UNK N   1      50.178  14.122  12.774  0.00  0.00     0.092 A 
HETATM    5  C   UNK N   1      48.746  12.160  12.975  0.00  0.00     0.017 A 
HETATM    6  C   UNK N   1      51.190  13.322  12.225  0.00  0.00     0.074 A 
HETATM    7  C   UNK N   1      47.954  14.347  13.695  0.00  0.00     0.020 A 
HETATM    8  C   UNK N   1      50.980  11.944  12.052  0.00  0.00     0.068 A 
HETATM    9  C   UNK N   1      49.758  11.371  12.428  0.00  0.00     0.037 A 
HETATM   10  C   UNK N   1      48.197  15.708  13.852  0.00  0.00     0.083 A 
HETATM   11  C   UNK N   1      49.436  16.230  13.460  0.00  0.00     0.288 A 
ENDROOT
BRANCH   8  12
HETATM   12  O   UNK N   1      51.952  11.175  11.525  0.00  0.00    -0.361 OA
HETATM   13  H   UNK N   1      51.968  10.973  10.577  0.00  0.00     0.217 HD
ENDBRANCH   8  12
TORSDOF 1
ENDMDL
MODEL 2
REMARK VINA RESULT:      -4.4      2.019      5.268
REMARK  1 active torsions:
REMARK  status: ('A' for Active; 'I' for Inactive)
REMARK    1  A    between atoms: O_2  and  C_9 
ROOT
HETATM    1  O   UNK N   1      49.987  16.278  13.103  0.00  0.00    -0.275 OA
HETATM    2  O   UNK N   1      51.055  14.484  12.384  0.00  0.00    -0.260 OA
HETATM    3  C   UNK N   1      48.181  16.053  14.636  0.00  0.00    -0.002 A 
HETATM    4  C   UNK N   1      49.036  16.850  13.842  0.00  0.00     0.092 A 
HETATM    5  C   UNK N   1      47.183  16.654  15.413  0.00  0.00     0.017 A 
HETATM    6  C   UNK N   1      48.879  18.244  13.837  0.00  0.00     0.074 A 
HETATM    7  C   UNK N   1      48.353  14.668  14.627  0.00  0.00     0.020 A 
HETATM    8  C   UNK N   1      47.876  18.840  14.619  0.00  0.00     0.068 A 
HETATM    9  C   UNK N   1      47.033  18.041  15.402  0.00  0.00     0.037 A 
HETATM   10  C   UNK N   1      49.358  14.112  13.841  0.00  0.00     0.083 A 
HETATM   11  C   UNK N   1      50.173  14.956  13.076  0.00  0.00     0.288 A 
ENDROOT
BRANCH   8  12
HETATM   12  O   UNK N   1      47.724  20.178  14.615  0.00  0.00    -0.361 OA
HETATM   13  H   UNK N   1      48.491  20.767  14.543  0.00  0.00     0.217 HD
ENDBRANCH   8  12
TORSDOF 1
ENDMDL
MODEL 3
REMARK VINA RESULT:      -4.4     36.438     37.506
REMARK  1 active torsions:
REMARK  status: ('A' for Active; 'I' for Inactive)
REMARK    1  A    between atoms: O_2  and  C_9 
ROOT
HETATM    1  O   UNK N   1      77.876  28.670  -7.766  0.00  0.00    -0.275 OA
HETATM    2  O   UNK N   1      78.433  26.545  -7.984  0.00  0.00    -0.260 OA
HETATM    3  C   UNK N   1      77.201  29.512  -5.645  0.00  0.00    -0.002 A 
HETATM    4  C   UNK N   1      77.464  29.696  -7.021  0.00  0.00     0.092 A 
HETATM    5  C   UNK N   1      76.768  30.589  -4.863  0.00  0.00     0.017 A 
HETATM    6  C   UNK N   1      77.290  30.964  -7.596  0.00  0.00     0.074 A 
HETATM    7  C   UNK N   1      77.380  28.243  -5.091  0.00  0.00     0.020 A 
HETATM    8  C   UNK N   1      76.855  32.040  -6.806  0.00  0.00     0.068 A 
HETATM    9  C   UNK N   1      76.597  31.846  -5.442  0.00  0.00     0.037 A 
HETATM   10  C   UNK N   1      77.812  27.199  -5.904  0.00  0.00     0.083 A 
HETATM   11  C   UNK N   1      78.056  27.447  -7.261  0.00  0.00     0.288 A 
ENDROOT
BRANCH   8  12
HETATM   12  O   UNK N   1      76.687  33.257  -7.357  0.00  0.00    -0.361 OA
HETATM   13  H   UNK N   1      76.265  33.358  -8.224  0.00  0.00     0.217 HD
ENDBRANCH   8  12
TORSDOF 1
ENDMDL
MODEL 4
REMARK VINA RESULT:      -4.3      2.359      5.415
REMARK  1 active torsions:
REMARK  status: ('A' for Active; 'I' for Inactive)
REMARK    1  A    between atoms: O_2  and  C_9 
ROOT
HETATM    1  O   UNK N   1      47.684  14.982  14.013  0.00  0.00    -0.275 OA
HETATM    2  O   UNK N   1      47.718  12.811  13.614  0.00  0.00    -0.260 OA
HETATM    3  C   UNK N   1      49.629  16.295  13.622  0.00  0.00    -0.002 A 
HETATM    4  C   UNK N   1      48.283  16.172  14.033  0.00  0.00     0.092 A 
HETATM    5  C   UNK N   1      50.259  17.545  13.643  0.00  0.00     0.017 A 
HETATM    6  C   UNK N   1      47.583  17.310  14.462  0.00  0.00     0.074 A 
HETATM    7  C   UNK N   1      50.309  15.151  13.199  0.00  0.00     0.020 A 
HETATM    8  C   UNK N   1      48.220  18.561  14.480  0.00  0.00     0.068 A 
HETATM    9  C   UNK N   1      49.556  18.672  14.070  0.00  0.00     0.037 A 
HETATM   10  C   UNK N   1      49.646  13.928  13.193  0.00  0.00     0.083 A 
HETATM   11  C   UNK N   1      48.311  13.873  13.613  0.00  0.00     0.288 A 
ENDROOT
BRANCH   8  12
HETATM   12  O   UNK N   1      47.549  19.654  14.892  0.00  0.00    -0.361 OA
HETATM   13  H   UNK N   1      47.812  20.540  14.599  0.00  0.00     0.217 HD
ENDBRANCH   8  12
TORSDOF 1
ENDMDL
MODEL 5
REMARK VINA RESULT:      -4.3      1.343      4.498
REMARK  1 active torsions:
REMARK  status: ('A' for Active; 'I' for Inactive)
REMARK    1  A    between atoms: O_2  and  C_9 
ROOT
HETATM    1  O   UNK N   1      50.765  15.183  12.614  0.00  0.00    -0.275 OA
HETATM    2  O   UNK N   1      51.725  13.537  11.499  0.00  0.00    -0.260 OA
HETATM    3  C   UNK N   1      48.738  14.795  13.799  0.00  0.00    -0.002 A 
HETATM    4  C   UNK N   1      49.784  15.651  13.386  0.00  0.00     0.092 A 
HETATM    5  C   UNK N   1      47.707  15.286  14.609  0.00  0.00     0.017 A 
HETATM    6  C   UNK N   1      49.782  16.993  13.794  0.00  0.00     0.074 A 
HETATM    7  C   UNK N   1      48.757  13.463  13.383  0.00  0.00     0.020 A 
HETATM    8  C   UNK N   1      48.746  17.479  14.607  0.00  0.00     0.068 A 
HETATM    9  C   UNK N   1      47.713  16.622  15.010  0.00  0.00     0.037 A 
HETATM   10  C   UNK N   1      49.800  13.015  12.577  0.00  0.00     0.083 A 
HETATM   11  C   UNK N   1      50.807  13.914  12.203  0.00  0.00     0.288 A 
ENDROOT
BRANCH   8  12
HETATM   12  O   UNK N   1      48.744  18.768  14.999  0.00  0.00    -0.361 OA
HETATM   13  H   UNK N   1      47.978  19.149  15.455  0.00  0.00     0.217 HD
ENDBRANCH   8  12
TORSDOF 1
ENDMDL
MODEL 6
REMARK VINA RESULT:      -4.3     36.008     37.228
REMARK  1 active torsions:
REMARK  status: ('A' for Active; 'I' for Inactive)
REMARK    1  A    between atoms: O_2  and  C_9 
ROOT
HETATM    1  O   UNK N   1      77.395  28.608  -4.814  0.00  0.00    -0.275 OA
HETATM    2  O   UNK N   1      77.925  26.470  -4.659  0.00  0.00    -0.260 OA
HETATM    3  C   UNK N   1      77.484  29.706  -6.923  0.00  0.00    -0.002 A 
HETATM    4  C   UNK N   1      77.233  29.719  -5.532  0.00  0.00     0.092 A 
HETATM    5  C   UNK N   1      77.314  30.872  -7.678  0.00  0.00     0.017 A 
HETATM    6  C   UNK N   1      76.814  30.906  -4.915  0.00  0.00     0.074 A 
HETATM    7  C   UNK N   1      77.901  28.514  -7.519  0.00  0.00     0.020 A 
HETATM    8  C   UNK N   1      76.645  32.073  -5.678  0.00  0.00     0.068 A 
HETATM    9  C   UNK N   1      76.897  32.050  -7.056  0.00  0.00     0.037 A 
HETATM   10  C   UNK N   1      78.057  27.377  -6.732  0.00  0.00     0.083 A 
HETATM   11  C   UNK N   1      77.792  27.456  -5.359  0.00  0.00     0.288 A 
ENDROOT
BRANCH   8  12
HETATM   12  O   UNK N   1      76.242  33.214  -5.086  0.00  0.00    -0.361 OA
HETATM   13  H   UNK N   1      75.393  33.622  -5.315  0.00  0.00     0.217 HD
ENDBRANCH   8  12
TORSDOF 1
ENDMDL
MODEL 7
REMARK VINA RESULT:      -4.2     33.757     35.025
REMARK  1 active torsions:
REMARK  status: ('A' for Active; 'I' for Inactive)
REMARK    1  A    between atoms: O_2  and  C_9 
ROOT
HETATM    1  O   UNK N   1      79.647  27.400   5.750  0.00  0.00    -0.275 OA
HETATM    2  O   UNK N   1      80.476  25.891   7.132  0.00  0.00    -0.260 OA
HETATM    3  C   UNK N   1      81.075  29.038   4.781  0.00  0.00    -0.002 A 
HETATM    4  C   UNK N   1      79.799  28.455   4.950  0.00  0.00     0.092 A 
HETATM    5  C   UNK N   1      81.235  30.147   3.941  0.00  0.00     0.017 A 
HETATM    6  C   UNK N   1      78.696  28.994   4.272  0.00  0.00     0.074 A 
HETATM    7  C   UNK N   1      82.161  28.487   5.464  0.00  0.00     0.020 A 
HETATM    8  C   UNK N   1      78.863  30.106   3.431  0.00  0.00     0.068 A 
HETATM    9  C   UNK N   1      80.132  30.677   3.270  0.00  0.00     0.037 A 
HETATM   10  C   UNK N   1      81.958  27.385   6.289  0.00  0.00     0.083 A 
HETATM   11  C   UNK N   1      80.668  26.854   6.415  0.00  0.00     0.288 A 
ENDROOT
BRANCH   8  12
HETATM   12  O   UNK N   1      77.804  30.625   2.780  0.00  0.00    -0.361 OA
HETATM   13  H   UNK N   1      77.410  30.164   2.023  0.00  0.00     0.217 HD
ENDBRANCH   8  12
TORSDOF 1
ENDMDL
MODEL 8
REMARK VINA RESULT:      -4.1      1.672      4.761
REMARK  1 active torsions:
REMARK  status: ('A' for Active; 'I' for Inactive)
REMARK    1  A    between atoms: O_2  and  C_9 
ROOT
HETATM    1  O   UNK N   1      48.964  12.809  13.093  0.00  0.00    -0.275 OA
HETATM    2  O   UNK N   1      49.989  11.179  12.013  0.00  0.00    -0.260 OA
HETATM    3  C   UNK N   1      49.910  14.992  13.128  0.00  0.00    -0.002 A 
HETATM    4  C   UNK N   1      48.894  14.080  13.491  0.00  0.00     0.092 A 
HETATM    5  C   UNK N   1      49.837  16.327  13.545  0.00  0.00     0.017 A 
HETATM    6  C   UNK N   1      47.815  14.519  14.271  0.00  0.00     0.074 A 
HETATM    7  C   UNK N   1      50.977  14.536  12.351  0.00  0.00     0.020 A 
HETATM    8  C   UNK N   1      47.748  15.859  14.686  0.00  0.00     0.068 A 
HETATM    9  C   UNK N   1      48.760  16.756  14.321  0.00  0.00     0.037 A 
HETATM   10  C   UNK N   1      51.011  13.202  11.957  0.00  0.00     0.083 A 
HETATM   11  C   UNK N   1      49.973  12.348  12.350  0.00  0.00     0.288 A 
ENDROOT
BRANCH   8  12
HETATM   12  O   UNK N   1      46.711  16.281  15.436  0.00  0.00    -0.361 OA
HETATM   13  H   UNK N   1      46.767  16.293  16.403  0.00  0.00     0.217 HD
ENDBRANCH   8  12
TORSDOF 1
ENDMDL
MODEL 9
REMARK VINA RESULT:      -4.1     36.063     37.182
REMARK  1 active torsions:
REMARK  status: ('A' for Active; 'I' for Inactive)
REMARK    1  A    between atoms: O_2  and  C_9 
ROOT
HETATM    1  O   UNK N   1      76.882  31.266  -5.099  0.00  0.00    -0.275 OA
HETATM    2  O   UNK N   1      76.656  33.460  -5.206  0.00  0.00    -0.260 OA
HETATM    3  C   UNK N   1      77.511  30.038  -7.037  0.00  0.00    -0.002 A 
HETATM    4  C   UNK N   1      77.160  30.094  -5.669  0.00  0.00     0.092 A 
HETATM    5  C   UNK N   1      77.804  28.808  -7.637  0.00  0.00     0.017 A 
HETATM    6  C   UNK N   1      77.107  28.910  -4.919  0.00  0.00     0.074 A 
HETATM    7  C   UNK N   1      77.559  31.227  -7.767  0.00  0.00     0.020 A 
HETATM    8  C   UNK N   1      77.402  27.679  -5.527  0.00  0.00     0.068 A 
HETATM    9  C   UNK N   1      77.749  27.635  -6.884  0.00  0.00     0.037 A 
HETATM   10  C   UNK N   1      77.260  32.429  -7.132  0.00  0.00     0.083 A 
HETATM   11  C   UNK N   1      76.920  32.417  -5.774  0.00  0.00     0.288 A 
ENDROOT
BRANCH   8  12
HETATM   12  O   UNK N   1      77.351  26.542  -4.807  0.00  0.00    -0.361 OA
HETATM   13  H   UNK N   1      78.136  26.207  -4.348  0.00  0.00     0.217 HD
ENDBRANCH   8  12
TORSDOF 1
ENDMDL
