MODEL 1
REMARK VINA RESULT:      -4.2      0.000      0.000
REMARK  5 active torsions:
REMARK  status: ('A' for Active; 'I' for Inactive)
REMARK    1  A    between atoms: O_1  and  C_11 
REMARK    2  A    between atoms: C_2  and  C_3 
REMARK    3  A    between atoms: C_2  and  C_4 
REMARK    4  A    between atoms: C_3  and  C_5 
REMARK    5  A    between atoms: C_8  and  C_11 
ROOT
HETATM    1  C   UNK N   1      76.892  36.242   0.048  0.00  0.00     0.037 C 
ENDROOT
BRANCH   1   2
HETATM    2  C   UNK N   1      76.898  37.325   1.129  0.00  0.00     0.031 C 
BRANCH   2   3
HETATM    3  C   UNK N   1      77.321  36.729   2.451  0.00  0.00    -0.024 C 
HETATM    4  C   UNK N   1      77.547  37.419   3.598  0.00  0.00    -0.091 C 
HETATM    5  C   UNK N   1      77.997  36.671   4.828  0.00  0.00     0.042 C 
HETATM    6  C   UNK N   1      77.343  38.911   3.745  0.00  0.00     0.042 C 
ENDBRANCH   2   3
ENDBRANCH   1   2
BRANCH   1   7
HETATM    7  C   UNK N   1      76.100  36.668  -1.172  0.00  0.00    -0.085 C 
HETATM    8  C   UNK N   1      75.586  38.093  -1.229  0.00  0.00     0.043 C 
HETATM    9  C   UNK N   1      75.881  35.776  -2.166  0.00  0.00     0.001 C 
BRANCH   9  10
HETATM   10  C   UNK N   1      75.110  36.094  -3.423  0.00  0.00     0.191 C 
BRANCH  10  11
HETATM   11  O   UNK N   1      73.925  35.350  -3.475  0.00  0.00    -0.397 OA
HETATM   12  H   UNK N   1      73.726  35.060  -2.546  0.00  0.00     0.209 HD
ENDBRANCH  10  11
ENDBRANCH   9  10
ENDBRANCH   1   7
TORSDOF 5
ENDMDL
MODEL 2
REMARK VINA RESULT:      -4.0      4.958      8.311
REMARK  5 active torsions:
REMARK  status: ('A' for Active; 'I' for Inactive)
REMARK    1  A    between atoms: O_1  and  C_11 
REMARK    2  A    between atoms: C_2  and  C_3 
REMARK    3  A    between atoms: C_2  and  C_4 
REMARK    4  A    between atoms: C_3  and  C_5 
REMARK    5  A    between atoms: C_8  and  C_11 
ROOT
HETATM    1  C   UNK N   1      78.604  36.280   6.122  0.00  0.00     0.037 C 
ENDROOT
BRANCH   1   2
HETATM    2  C   UNK N   1      78.137  37.387   5.175  0.00  0.00     0.031 C 
BRANCH   2   3
HETATM    3  C   UNK N   1      77.875  36.813   3.803  0.00  0.00    -0.024 C 
HETATM    4  C   UNK N   1      77.362  37.487   2.742  0.00  0.00    -0.091 C 
HETATM    5  C   UNK N   1      77.133  36.753   1.446  0.00  0.00     0.042 C 
HETATM    6  C   UNK N   1      77.028  38.963   2.757  0.00  0.00     0.042 C 
ENDBRANCH   2   3
ENDBRANCH   1   2
BRANCH   1   7
HETATM    7  C   UNK N   1      78.460  36.685   7.576  0.00  0.00    -0.085 C 
HETATM    8  C   UNK N   1      78.383  38.164   7.902  0.00  0.00     0.043 C 
HETATM    9  C   UNK N   1      78.400  35.726   8.529  0.00  0.00     0.001 C 
BRANCH   9  10
HETATM   10  C   UNK N   1      78.255  36.017  10.002  0.00  0.00     0.191 C 
BRANCH  10  11
HETATM   11  O   UNK N   1      76.916  35.900  10.398  0.00  0.00    -0.397 OA
HETATM   12  H   UNK N   1      76.375  36.395   9.728  0.00  0.00     0.209 HD
ENDBRANCH  10  11
ENDBRANCH   9  10
ENDBRANCH   1   7
TORSDOF 5
ENDMDL
MODEL 3
REMARK VINA RESULT:      -3.9      9.667     11.147
REMARK  5 active torsions:
REMARK  status: ('A' for Active; 'I' for Inactive)
REMARK    1  A    between atoms: O_1  and  C_11 
REMARK    2  A    between atoms: C_2  and  C_3 
REMARK    3  A    between atoms: C_2  and  C_4 
REMARK    4  A    between atoms: C_3  and  C_5 
REMARK    5  A    between atoms: C_8  and  C_11 
ROOT
HETATM    1  C   UNK N   1      80.722  28.975   5.238  0.00  0.00     0.037 C 
ENDROOT
BRANCH   1   2
HETATM    2  C   UNK N   1      80.128  28.045   6.297  0.00  0.00     0.031 C 
BRANCH   2   3
HETATM    3  C   UNK N   1      81.158  27.759   7.365  0.00  0.00    -0.024 C 
HETATM    4  C   UNK N   1      81.532  26.528   7.800  0.00  0.00    -0.091 C 
HETATM    5  C   UNK N   1      82.556  26.419   8.901  0.00  0.00     0.042 C 
HETATM    6  C   UNK N   1      81.009  25.230   7.225  0.00  0.00     0.042 C 
ENDBRANCH   2   3
ENDBRANCH   1   2
BRANCH   1   7
HETATM    7  C   UNK N   1      79.805  29.122   4.039  0.00  0.00    -0.085 C 
HETATM    8  C   UNK N   1      79.882  30.403   3.232  0.00  0.00     0.043 C 
HETATM    9  C   UNK N   1      78.958  28.115   3.725  0.00  0.00     0.001 C 
BRANCH   9  10
HETATM   10  C   UNK N   1      78.006  28.154   2.555  0.00  0.00     0.191 C 
BRANCH  10  11
HETATM   11  O   UNK N   1      77.865  26.879   1.992  0.00  0.00    -0.397 OA
HETATM   12  H   UNK N   1      78.325  26.243   2.602  0.00  0.00     0.209 HD
ENDBRANCH  10  11
ENDBRANCH   9  10
ENDBRANCH   1   7
TORSDOF 5
ENDMDL
MODEL 4
REMARK VINA RESULT:      -3.9     36.293     36.819
REMARK  5 active torsions:
REMARK  status: ('A' for Active; 'I' for Inactive)
REMARK    1  A    between atoms: O_1  and  C_11 
REMARK    2  A    between atoms: C_2  and  C_3 
REMARK    3  A    between atoms: C_2  and  C_4 
REMARK    4  A    between atoms: C_3  and  C_5 
REMARK    5  A    between atoms: C_8  and  C_11 
ROOT
HETATM    1  C   UNK N   1      49.771  15.811  14.894  0.00  0.00     0.037 C 
ENDROOT
BRANCH   1   2
HETATM    2  C   UNK N   1      49.475  14.744  13.837  0.00  0.00     0.031 C 
BRANCH   2   3
HETATM    3  C   UNK N   1      50.558  14.749  12.785  0.00  0.00    -0.024 C 
HETATM    4  C   UNK N   1      50.964  13.679  12.056  0.00  0.00    -0.091 C 
HETATM    5  C   UNK N   1      52.086  13.849  11.063  0.00  0.00     0.042 C 
HETATM    6  C   UNK N   1      50.336  12.305  12.144  0.00  0.00     0.042 C 
ENDBRANCH   2   3
ENDBRANCH   1   2
BRANCH   1   7
HETATM    7  C   UNK N   1      49.191  17.159  14.512  0.00  0.00    -0.085 C 
HETATM    8  C   UNK N   1      50.103  18.165  13.840  0.00  0.00     0.043 C 
HETATM    9  C   UNK N   1      47.889  17.419  14.775  0.00  0.00     0.001 C 
BRANCH   9  10
HETATM   10  C   UNK N   1      47.210  18.723  14.436  0.00  0.00     0.191 C 
BRANCH  10  11
HETATM   11  O   UNK N   1      47.527  19.704  15.384  0.00  0.00    -0.397 OA
HETATM   12  H   UNK N   1      47.081  20.541  15.091  0.00  0.00     0.209 HD
ENDBRANCH  10  11
ENDBRANCH   9  10
ENDBRANCH   1   7
TORSDOF 5
ENDMDL
MODEL 5
REMARK VINA RESULT:      -3.9      4.098      5.936
REMARK  5 active torsions:
REMARK  status: ('A' for Active; 'I' for Inactive)
REMARK    1  A    between atoms: O_1  and  C_11 
REMARK    2  A    between atoms: C_2  and  C_3 
REMARK    3  A    between atoms: C_2  and  C_4 
REMARK    4  A    between atoms: C_3  and  C_5 
REMARK    5  A    between atoms: C_8  and  C_11 
ROOT
HETATM    1  C   UNK N   1      78.078  36.200   4.895  0.00  0.00     0.037 C 
ENDROOT
BRANCH   1   2
HETATM    2  C   UNK N   1      79.082  36.682   5.945  0.00  0.00     0.031 C 
BRANCH   2   3
HETATM    3  C   UNK N   1      78.626  36.260   7.322  0.00  0.00    -0.024 C 
HETATM    4  C   UNK N   1      78.192  37.089   8.305  0.00  0.00    -0.091 C 
HETATM    5  C   UNK N   1      77.802  36.505   9.640  0.00  0.00     0.042 C 
HETATM    6  C   UNK N   1      78.034  38.585   8.145  0.00  0.00     0.042 C 
ENDBRANCH   2   3
ENDBRANCH   1   2
BRANCH   1   7
HETATM    7  C   UNK N   1      77.684  37.311   3.941  0.00  0.00    -0.085 C 
HETATM    8  C   UNK N   1      77.310  36.935   2.521  0.00  0.00     0.043 C 
HETATM    9  C   UNK N   1      77.673  38.591   4.382  0.00  0.00     0.001 C 
BRANCH   9  10
HETATM   10  C   UNK N   1      77.295  39.770   3.521  0.00  0.00     0.191 C 
BRANCH  10  11
HETATM   11  O   UNK N   1      75.911  39.984   3.558  0.00  0.00    -0.397 OA
HETATM   12  H   UNK N   1      75.771  40.894   3.929  0.00  0.00     0.209 HD
ENDBRANCH  10  11
ENDBRANCH   9  10
ENDBRANCH   1   7
TORSDOF 5
ENDMDL
MODEL 6
REMARK VINA RESULT:      -3.8      6.232      9.851
REMARK  5 active torsions:
REMARK  status: ('A' for Active; 'I' for Inactive)
REMARK    1  A    between atoms: O_1  and  C_11 
REMARK    2  A    between atoms: C_2  and  C_3 
REMARK    3  A    between atoms: C_2  and  C_4 
REMARK    4  A    between atoms: C_3  and  C_5 
REMARK    5  A    between atoms: C_8  and  C_11 
ROOT
HETATM    1  C   UNK N   1      77.927  38.415   8.542  0.00  0.00     0.037 C 
ENDROOT
BRANCH   1   2
HETATM    2  C   UNK N   1      78.783  37.704   7.492  0.00  0.00     0.031 C 
BRANCH   2   3
HETATM    3  C   UNK N   1      78.245  37.992   6.110  0.00  0.00    -0.024 C 
HETATM    4  C   UNK N   1      78.100  37.087   5.109  0.00  0.00    -0.091 C 
HETATM    5  C   UNK N   1      77.574  37.549   3.773  0.00  0.00     0.042 C 
HETATM    6  C   UNK N   1      78.402  35.612   5.248  0.00  0.00     0.042 C 
ENDBRANCH   2   3
ENDBRANCH   1   2
BRANCH   1   7
HETATM    7  C   UNK N   1      78.081  37.786   9.913  0.00  0.00    -0.085 C 
HETATM    8  C   UNK N   1      78.360  38.699  11.091  0.00  0.00     0.043 C 
HETATM    9  C   UNK N   1      77.961  36.445  10.045  0.00  0.00     0.001 C 
BRANCH   9  10
HETATM   10  C   UNK N   1      78.093  35.717  11.360  0.00  0.00     0.191 C 
BRANCH  10  11
HETATM   11  O   UNK N   1      76.851  35.216  11.771  0.00  0.00    -0.397 OA
HETATM   12  H   UNK N   1      76.387  35.953  12.248  0.00  0.00     0.209 HD
ENDBRANCH  10  11
ENDBRANCH   9  10
ENDBRANCH   1   7
TORSDOF 5
ENDMDL
MODEL 7
REMARK VINA RESULT:      -3.8     10.407     12.671
REMARK  5 active torsions:
REMARK  status: ('A' for Active; 'I' for Inactive)
REMARK    1  A    between atoms: O_1  and  C_11 
REMARK    2  A    between atoms: C_2  and  C_3 
REMARK    3  A    between atoms: C_2  and  C_4 
REMARK    4  A    between atoms: C_3  and  C_5 
REMARK    5  A    between atoms: C_8  and  C_11 
ROOT
HETATM    1  C   UNK N   1      79.958  27.775   6.207  0.00  0.00     0.037 C 
ENDROOT
BRANCH   1   2
HETATM    2  C   UNK N   1      80.575  27.816   4.807  0.00  0.00     0.031 C 
BRANCH   2   3
HETATM    3  C   UNK N   1      80.856  29.247   4.411  0.00  0.00    -0.024 C 
HETATM    4  C   UNK N   1      80.017  30.060   3.719  0.00  0.00    -0.091 C 
HETATM    5  C   UNK N   1      80.467  31.457   3.376  0.00  0.00     0.042 C 
HETATM    6  C   UNK N   1      78.621  29.669   3.287  0.00  0.00     0.042 C 
ENDBRANCH   2   3
ENDBRANCH   1   2
BRANCH   1   7
HETATM    7  C   UNK N   1      80.747  26.881   7.143  0.00  0.00    -0.085 C 
HETATM    8  C   UNK N   1      80.743  25.388   6.879  0.00  0.00     0.043 C 
HETATM    9  C   UNK N   1      81.427  27.435   8.174  0.00  0.00     0.001 C 
BRANCH   9  10
HETATM   10  C   UNK N   1      82.243  26.641   9.162  0.00  0.00     0.191 C 
BRANCH  10  11
HETATM   11  O   UNK N   1      81.639  26.658  10.426  0.00  0.00    -0.397 OA
HETATM   12  H   UNK N   1      82.293  26.266  11.062  0.00  0.00     0.209 HD
ENDBRANCH  10  11
ENDBRANCH   9  10
ENDBRANCH   1   7
TORSDOF 5
ENDMDL
MODEL 8
REMARK VINA RESULT:      -3.7     10.506     12.556
REMARK  5 active torsions:
REMARK  status: ('A' for Active; 'I' for Inactive)
REMARK    1  A    between atoms: O_1  and  C_11 
REMARK    2  A    between atoms: C_2  and  C_3 
REMARK    3  A    between atoms: C_2  and  C_4 
REMARK    4  A    between atoms: C_3  and  C_5 
REMARK    5  A    between atoms: C_8  and  C_11 
ROOT
HETATM    1  C   UNK N   1      81.078  27.959   6.823  0.00  0.00     0.037 C 
ENDROOT
BRANCH   1   2
HETATM    2  C   UNK N   1      79.946  28.108   5.804  0.00  0.00     0.031 C 
BRANCH   2   3
HETATM    3  C   UNK N   1      80.232  29.271   4.884  0.00  0.00    -0.024 C 
HETATM    4  C   UNK N   1      79.496  29.627   3.800  0.00  0.00    -0.091 C 
HETATM    5  C   UNK N   1      79.941  30.801   2.965  0.00  0.00     0.042 C 
HETATM    6  C   UNK N   1      78.217  28.937   3.379  0.00  0.00     0.042 C 
ENDBRANCH   2   3
ENDBRANCH   1   2
BRANCH   1   7
HETATM    7  C   UNK N   1      81.570  26.528   6.914  0.00  0.00    -0.085 C 
HETATM    8  C   UNK N   1      81.989  26.002   8.272  0.00  0.00     0.043 C 
HETATM    9  C   UNK N   1      81.615  25.769   5.794  0.00  0.00     0.001 C 
BRANCH   9  10
HETATM   10  C   UNK N   1      82.084  24.336   5.772  0.00  0.00     0.191 C 
BRANCH  10  11
HETATM   11  O   UNK N   1      81.144  23.521   5.128  0.00  0.00    -0.397 OA
HETATM   12  H   UNK N   1      80.279  23.653   5.597  0.00  0.00     0.209 HD
ENDBRANCH  10  11
ENDBRANCH   9  10
ENDBRANCH   1   7
TORSDOF 5
ENDMDL
MODEL 9
REMARK VINA RESULT:      -3.7      2.107      2.755
REMARK  5 active torsions:
REMARK  status: ('A' for Active; 'I' for Inactive)
REMARK    1  A    between atoms: O_1  and  C_11 
REMARK    2  A    between atoms: C_2  and  C_3 
REMARK    3  A    between atoms: C_2  and  C_4 
REMARK    4  A    between atoms: C_3  and  C_5 
REMARK    5  A    between atoms: C_8  and  C_11 
ROOT
HETATM    1  C   UNK N   1      78.080  38.211   1.331  0.00  0.00     0.037 C 
ENDROOT
BRANCH   1   2
HETATM    2  C   UNK N   1      77.189  38.137   2.572  0.00  0.00     0.031 C 
BRANCH   2   3
HETATM    3  C   UNK N   1      77.596  36.961   3.428  0.00  0.00    -0.024 C 
HETATM    4  C   UNK N   1      77.992  37.020   4.725  0.00  0.00    -0.091 C 
HETATM    5  C   UNK N   1      78.397  35.749   5.427  0.00  0.00     0.042 C 
HETATM    6  C   UNK N   1      78.026  38.291   5.544  0.00  0.00     0.042 C 
ENDBRANCH   2   3
ENDBRANCH   1   2
BRANCH   1   7
HETATM    7  C   UNK N   1      78.044  36.922   0.533  0.00  0.00    -0.085 C 
HETATM    8  C   UNK N   1      79.351  36.194   0.292  0.00  0.00     0.043 C 
HETATM    9  C   UNK N   1      76.859  36.462   0.070  0.00  0.00     0.001 C 
BRANCH   9  10
HETATM   10  C   UNK N   1      76.708  35.193  -0.730  0.00  0.00     0.191 C 
BRANCH  10  11
HETATM   11  O   UNK N   1      76.596  34.085   0.120  0.00  0.00    -0.397 OA
HETATM   12  H   UNK N   1      77.259  33.415  -0.192  0.00  0.00     0.209 HD
ENDBRANCH  10  11
ENDBRANCH   9  10
ENDBRANCH   1   7
TORSDOF 5
ENDMDL
