MODEL 1
REMARK VINA RESULT:      -5.0      0.000      0.000
REMARK  6 active torsions:
REMARK  status: ('A' for Active; 'I' for Inactive)
REMARK    1  A    between atoms: C_7  and  O_1 
REMARK    2  A    between atoms: O_2  and  C_10 
REMARK    3  A    between atoms: O_3  and  C_11 
REMARK    4  A    between atoms: O_4  and  C_12 
REMARK    5  A    between atoms: O_5  and  C_13 
REMARK    6  A    between atoms: C_7  and  C_13 
ROOT
HETATM    1  C   UNK N   1      81.467  25.925   7.663  0.00  0.00     0.147 C 
HETATM    2  C   UNK N   1      80.699  27.240   7.359  0.00  0.00     0.083 C 
HETATM    3  C   UNK N   1      82.489  25.661   6.528  0.00  0.00     0.083 C 
HETATM    4  C   UNK N   1      80.012  27.221   5.975  0.00  0.00     0.152 C 
HETATM    5  C   UNK N   1      81.845  25.641   5.125  0.00  0.00     0.152 C 
HETATM    6  C   UNK N   1      81.059  26.953   4.869  0.00  0.00     0.175 C 
ENDROOT
BRANCH   1   7
HETATM    7  O   UNK N   1      80.577  24.836   7.750  0.00  0.00    -0.379 OA
HETATM    8  H   UNK N   1      79.753  25.066   7.244  0.00  0.00     0.211 HD
ENDBRANCH   1   7
BRANCH   1   9
HETATM    9  C   UNK N   1      82.225  26.075   8.970  0.00  0.00     0.176 C 
HETATM   10  O   UNK N   1      83.218  26.782   9.038  0.00  0.00    -0.648 OA
BRANCH   9  11
HETATM   11  O   UNK N   1      81.795  25.414  10.070  0.00  0.00    -0.774 OA
HETATM   12  H   UNK N   1      82.348  25.339  10.860  0.00  0.00     0.167 HD
ENDBRANCH   9  11
ENDBRANCH   1   9
BRANCH   4  13
HETATM   13  O   UNK N   1      79.403  28.463   5.728  0.00  0.00    -0.393 OA
HETATM   14  H   UNK N   1      78.976  28.753   6.576  0.00  0.00     0.210 HD
ENDBRANCH   4  13
BRANCH   5  15
HETATM   15  O   UNK N   1      81.070  24.484   4.912  0.00  0.00    -0.393 OA
HETATM   16  H   UNK N   1      80.166  24.612   5.287  0.00  0.00     0.210 HD
ENDBRANCH   5  15
BRANCH   6  17
HETATM   17  O   UNK N   1      80.423  26.913   3.617  0.00  0.00    -0.390 OA
HETATM   18  H   UNK N   1      80.436  25.966   3.316  0.00  0.00     0.210 HD
ENDBRANCH   6  17
TORSDOF 6
ENDMDL
MODEL 2
REMARK VINA RESULT:      -4.7     21.278     23.666
REMARK  6 active torsions:
REMARK  status: ('A' for Active; 'I' for Inactive)
REMARK    1  A    between atoms: C_7  and  O_1 
REMARK    2  A    between atoms: O_2  and  C_10 
REMARK    3  A    between atoms: O_3  and  C_11 
REMARK    4  A    between atoms: O_4  and  C_12 
REMARK    5  A    between atoms: O_5  and  C_13 
REMARK    6  A    between atoms: C_7  and  C_13 
ROOT
HETATM    1  C   UNK N   1      74.228  37.242 -13.553  0.00  0.00     0.147 C 
HETATM    2  C   UNK N   1      75.449  37.904 -12.857  0.00  0.00     0.083 C 
HETATM    3  C   UNK N   1      72.974  37.428 -12.662  0.00  0.00     0.083 C 
HETATM    4  C   UNK N   1      75.684  37.361 -11.429  0.00  0.00     0.152 C 
HETATM    5  C   UNK N   1      73.168  36.906 -11.224  0.00  0.00     0.152 C 
HETATM    6  C   UNK N   1      74.414  37.562 -10.572  0.00  0.00     0.175 C 
ENDROOT
BRANCH   1   7
HETATM    7  O   UNK N   1      74.455  35.865 -13.755  0.00  0.00    -0.379 OA
HETATM    8  H   UNK N   1      75.433  35.700 -13.704  0.00  0.00     0.211 HD
ENDBRANCH   1   7
BRANCH   1   9
HETATM    9  C   UNK N   1      73.979  37.923 -14.888  0.00  0.00     0.176 C 
HETATM   10  O   UNK N   1      74.734  37.743 -15.829  0.00  0.00    -0.648 OA
BRANCH   9  11
HETATM   11  O   UNK N   1      72.909  38.740 -15.031  0.00  0.00    -0.774 OA
HETATM   12  H   UNK N   1      72.102  38.605 -14.517  0.00  0.00     0.167 HD
ENDBRANCH   9  11
ENDBRANCH   1   9
BRANCH   4  13
HETATM   13  O   UNK N   1      76.749  38.053 -10.827  0.00  0.00    -0.393 OA
HETATM   14  H   UNK N   1      76.481  39.006 -10.765  0.00  0.00     0.210 HD
ENDBRANCH   4  13
BRANCH   5  15
HETATM   15  O   UNK N   1      73.194  35.498 -11.167  0.00  0.00    -0.393 OA
HETATM   16  H   UNK N   1      73.909  35.153 -11.753  0.00  0.00     0.210 HD
ENDBRANCH   5  15
BRANCH   6  17
HETATM   17  O   UNK N   1      74.628  37.044  -9.283  0.00  0.00    -0.390 OA
HETATM   18  H   UNK N   1      75.460  37.461  -8.938  0.00  0.00     0.210 HD
ENDBRANCH   6  17
TORSDOF 6
ENDMDL
MODEL 3
REMARK VINA RESULT:      -4.6      1.636      4.609
REMARK  6 active torsions:
REMARK  status: ('A' for Active; 'I' for Inactive)
REMARK    1  A    between atoms: C_7  and  O_1 
REMARK    2  A    between atoms: O_2  and  C_10 
REMARK    3  A    between atoms: O_3  and  C_11 
REMARK    4  A    between atoms: O_4  and  C_12 
REMARK    5  A    between atoms: O_5  and  C_13 
REMARK    6  A    between atoms: C_7  and  C_13 
ROOT
HETATM    1  C   UNK N   1      81.327  27.671   6.589  0.00  0.00     0.147 C 
HETATM    2  C   UNK N   1      81.207  26.456   7.548  0.00  0.00     0.083 C 
HETATM    3  C   UNK N   1      82.826  27.986   6.354  0.00  0.00     0.083 C 
HETATM    4  C   UNK N   1      81.954  26.677   8.882  0.00  0.00     0.152 C 
HETATM    5  C   UNK N   1      83.612  28.206   7.663  0.00  0.00     0.152 C 
HETATM    6  C   UNK N   1      83.443  26.989   8.609  0.00  0.00     0.175 C 
ENDROOT
BRANCH   1   7
HETATM    7  O   UNK N   1      80.695  28.806   7.139  0.00  0.00    -0.379 OA
HETATM    8  H   UNK N   1      80.302  29.334   6.395  0.00  0.00     0.211 HD
ENDBRANCH   1   7
BRANCH   1   9
HETATM    9  C   UNK N   1      80.690  27.325   5.254  0.00  0.00     0.176 C 
HETATM   10  O   UNK N   1      81.381  27.064   4.283  0.00  0.00    -0.648 OA
BRANCH   9  11
HETATM   11  O   UNK N   1      79.341  27.310   5.142  0.00  0.00    -0.774 OA
HETATM   12  H   UNK N   1      78.796  26.757   5.718  0.00  0.00     0.167 HD
ENDBRANCH   9  11
ENDBRANCH   1   9
BRANCH   4  13
HETATM   13  O   UNK N   1      81.874  25.515   9.670  0.00  0.00    -0.393 OA
HETATM   14  H   UNK N   1      81.565  25.792  10.571  0.00  0.00     0.210 HD
ENDBRANCH   4  13
BRANCH   5  15
HETATM   15  O   UNK N   1      83.289  29.431   8.278  0.00  0.00    -0.393 OA
HETATM   16  H   UNK N   1      82.450  29.786   7.899  0.00  0.00     0.210 HD
ENDBRANCH   5  15
BRANCH   6  17
HETATM   17  O   UNK N   1      84.109  27.212   9.826  0.00  0.00    -0.390 OA
HETATM   18  H   UNK N   1      85.074  27.038   9.665  0.00  0.00     0.210 HD
ENDBRANCH   6  17
TORSDOF 6
ENDMDL
MODEL 4
REMARK VINA RESULT:      -4.5      1.661      2.440
REMARK  6 active torsions:
REMARK  status: ('A' for Active; 'I' for Inactive)
REMARK    1  A    between atoms: C_7  and  O_1 
REMARK    2  A    between atoms: O_2  and  C_10 
REMARK    3  A    between atoms: O_3  and  C_11 
REMARK    4  A    between atoms: O_4  and  C_12 
REMARK    5  A    between atoms: O_5  and  C_13 
REMARK    6  A    between atoms: C_7  and  C_13 
ROOT
HETATM    1  C   UNK N   1      83.100  26.633   7.933  0.00  0.00     0.147 C 
HETATM    2  C   UNK N   1      82.449  27.938   7.401  0.00  0.00     0.083 C 
HETATM    3  C   UNK N   1      82.731  25.461   6.988  0.00  0.00     0.083 C 
HETATM    4  C   UNK N   1      80.918  27.812   7.228  0.00  0.00     0.152 C 
HETATM    5  C   UNK N   1      81.210  25.303   6.782  0.00  0.00     0.152 C 
HETATM    6  C   UNK N   1      80.589  26.634   6.283  0.00  0.00     0.175 C 
ENDROOT
BRANCH   1   7
HETATM    7  O   UNK N   1      82.642  26.342   9.235  0.00  0.00    -0.379 OA
HETATM    8  H   UNK N   1      83.210  25.618   9.609  0.00  0.00     0.211 HD
ENDBRANCH   1   7
BRANCH   1   9
HETATM    9  C   UNK N   1      84.610  26.790   7.943  0.00  0.00     0.176 C 
HETATM   10  O   UNK N   1      85.147  27.603   8.676  0.00  0.00    -0.648 OA
BRANCH   9  11
HETATM   11  O   UNK N   1      85.366  26.020   7.126  0.00  0.00    -0.774 OA
HETATM   12  H   UNK N   1      86.086  25.476   7.472  0.00  0.00     0.167 HD
ENDBRANCH   9  11
ENDBRANCH   1   9
BRANCH   4  13
HETATM   13  O   UNK N   1      80.403  28.995   6.671  0.00  0.00    -0.393 OA
HETATM   14  H   UNK N   1      80.026  28.761   5.783  0.00  0.00     0.210 HD
ENDBRANCH   4  13
BRANCH   5  15
HETATM   15  O   UNK N   1      80.568  24.791   7.927  0.00  0.00    -0.393 OA
HETATM   16  H   UNK N   1      79.981  25.480   8.318  0.00  0.00     0.210 HD
ENDBRANCH   5  15
BRANCH   6  17
HETATM   17  O   UNK N   1      79.196  26.511   6.151  0.00  0.00    -0.390 OA
HETATM   18  H   UNK N   1      78.921  25.728   6.697  0.00  0.00     0.210 HD
ENDBRANCH   6  17
TORSDOF 6
ENDMDL
MODEL 5
REMARK VINA RESULT:      -4.4     12.736     14.594
REMARK  6 active torsions:
REMARK  status: ('A' for Active; 'I' for Inactive)
REMARK    1  A    between atoms: C_7  and  O_1 
REMARK    2  A    between atoms: O_2  and  C_10 
REMARK    3  A    between atoms: O_3  and  C_11 
REMARK    4  A    between atoms: O_4  and  C_12 
REMARK    5  A    between atoms: O_5  and  C_13 
REMARK    6  A    between atoms: C_7  and  C_13 
ROOT
HETATM    1  C   UNK N   1      77.181  29.369  -6.377  0.00  0.00     0.147 C 
HETATM    2  C   UNK N   1      76.686  30.512  -5.449  0.00  0.00     0.083 C 
HETATM    3  C   UNK N   1      78.543  29.773  -6.997  0.00  0.00     0.083 C 
HETATM    4  C   UNK N   1      76.594  31.871  -6.179  0.00  0.00     0.152 C 
HETATM    5  C   UNK N   1      78.498  31.131  -7.729  0.00  0.00     0.152 C 
HETATM    6  C   UNK N   1      77.967  32.240  -6.784  0.00  0.00     0.175 C 
ENDROOT
BRANCH   1   7
HETATM    7  O   UNK N   1      76.253  29.128  -7.411  0.00  0.00    -0.379 OA
HETATM    8  H   UNK N   1      76.535  28.309  -7.897  0.00  0.00     0.211 HD
ENDBRANCH   1   7
BRANCH   1   9
HETATM    9  C   UNK N   1      77.378  28.105  -5.559  0.00  0.00     0.176 C 
HETATM   10  O   UNK N   1      77.309  28.134  -4.341  0.00  0.00    -0.648 OA
BRANCH   9  11
HETATM   11  O   UNK N   1      77.635  26.936  -6.190  0.00  0.00    -0.774 OA
HETATM   12  H   UNK N   1      77.877  26.141  -5.696  0.00  0.00     0.167 HD
ENDBRANCH   9  11
ENDBRANCH   1   9
BRANCH   4  13
HETATM   13  O   UNK N   1      76.217  32.875  -5.269  0.00  0.00    -0.393 OA
HETATM   14  H   UNK N   1      77.012  33.451  -5.123  0.00  0.00     0.210 HD
ENDBRANCH   4  13
BRANCH   5  15
HETATM   15  O   UNK N   1      77.788  31.057  -8.944  0.00  0.00    -0.393 OA
HETATM   16  H   UNK N   1      77.132  30.321  -8.905  0.00  0.00     0.210 HD
ENDBRANCH   5  15
BRANCH   6  17
HETATM   17  O   UNK N   1      77.869  33.465  -7.466  0.00  0.00    -0.390 OA
HETATM   18  H   UNK N   1      78.675  33.995  -7.229  0.00  0.00     0.210 HD
ENDBRANCH   6  17
TORSDOF 6
ENDMDL
MODEL 6
REMARK VINA RESULT:      -4.4     23.370     24.759
REMARK  6 active torsions:
REMARK  status: ('A' for Active; 'I' for Inactive)
REMARK    1  A    between atoms: C_7  and  O_1 
REMARK    2  A    between atoms: O_2  and  C_10 
REMARK    3  A    between atoms: O_3  and  C_11 
REMARK    4  A    between atoms: O_4  and  C_12 
REMARK    5  A    between atoms: O_5  and  C_13 
REMARK    6  A    between atoms: C_7  and  C_13 
ROOT
HETATM    1  C   UNK N   1      76.934  21.856 -16.483  0.00  0.00     0.147 C 
HETATM    2  C   UNK N   1      76.854  21.356 -17.950  0.00  0.00     0.083 C 
HETATM    3  C   UNK N   1      77.040  20.634 -15.535  0.00  0.00     0.083 C 
HETATM    4  C   UNK N   1      75.692  20.363 -18.177  0.00  0.00     0.152 C 
HETATM    5  C   UNK N   1      75.901  19.612 -15.733  0.00  0.00     0.152 C 
HETATM    6  C   UNK N   1      75.829  19.160 -17.215  0.00  0.00     0.175 C 
ENDROOT
BRANCH   1   7
HETATM    7  O   UNK N   1      75.788  22.606 -16.148  0.00  0.00    -0.379 OA
HETATM    8  H   UNK N   1      75.152  22.007 -15.674  0.00  0.00     0.211 HD
ENDBRANCH   1   7
BRANCH   1   9
HETATM    9  C   UNK N   1      78.176  22.712 -16.309  0.00  0.00     0.176 C 
HETATM   10  O   UNK N   1      79.289  22.226 -16.426  0.00  0.00    -0.648 OA
BRANCH   9  11
HETATM   11  O   UNK N   1      78.045  24.027 -16.018  0.00  0.00    -0.774 OA
HETATM   12  H   UNK N   1      78.816  24.582 -15.839  0.00  0.00     0.167 HD
ENDBRANCH   9  11
ENDBRANCH   1   9
BRANCH   4  13
HETATM   13  O   UNK N   1      75.722  19.888 -19.500  0.00  0.00    -0.393 OA
HETATM   14  H   UNK N   1      75.118  19.103 -19.544  0.00  0.00     0.210 HD
ENDBRANCH   4  13
BRANCH   5  15
HETATM   15  O   UNK N   1      74.669  20.086 -15.242  0.00  0.00    -0.393 OA
HETATM   16  H   UNK N   1      73.976  19.393 -15.350  0.00  0.00     0.210 HD
ENDBRANCH   5  15
BRANCH   6  17
HETATM   17  O   UNK N   1      74.756  18.275 -17.411  0.00  0.00    -0.390 OA
HETATM   18  H   UNK N   1      74.583  17.832 -16.539  0.00  0.00     0.210 HD
ENDBRANCH   6  17
TORSDOF 6
ENDMDL
MODEL 7
REMARK VINA RESULT:      -4.4     23.187     25.651
REMARK  6 active torsions:
REMARK  status: ('A' for Active; 'I' for Inactive)
REMARK    1  A    between atoms: C_7  and  O_1 
REMARK    2  A    between atoms: O_2  and  C_10 
REMARK    3  A    between atoms: O_3  and  C_11 
REMARK    4  A    between atoms: O_4  and  C_12 
REMARK    5  A    between atoms: O_5  and  C_13 
REMARK    6  A    between atoms: C_7  and  C_13 
ROOT
HETATM    1  C   UNK N   1      75.870  20.012 -18.215  0.00  0.00     0.147 C 
HETATM    2  C   UNK N   1      75.846  18.857 -17.178  0.00  0.00     0.083 C 
HETATM    3  C   UNK N   1      76.979  21.022 -17.824  0.00  0.00     0.083 C 
HETATM    4  C   UNK N   1      75.664  19.364 -15.729  0.00  0.00     0.152 C 
HETATM    5  C   UNK N   1      76.839  21.548 -16.381  0.00  0.00     0.152 C 
HETATM    6  C   UNK N   1      76.784  20.368 -15.376  0.00  0.00     0.175 C 
ENDROOT
BRANCH   1   7
HETATM    7  O   UNK N   1      74.628  20.677 -18.251  0.00  0.00    -0.379 OA
HETATM    8  H   UNK N   1      73.909  19.999 -18.149  0.00  0.00     0.211 HD
ENDBRANCH   1   7
BRANCH   1   9
HETATM    9  C   UNK N   1      76.191  19.449 -19.589  0.00  0.00     0.176 C 
HETATM   10  O   UNK N   1      77.115  19.900 -20.247  0.00  0.00    -0.648 OA
BRANCH   9  11
HETATM   11  O   UNK N   1      75.441  18.439 -20.088  0.00  0.00    -0.774 OA
HETATM   12  H   UNK N   1      75.549  17.531 -19.775  0.00  0.00     0.167 HD
ENDBRANCH   9  11
ENDBRANCH   1   9
BRANCH   4  13
HETATM   13  O   UNK N   1      75.729  18.281 -14.835  0.00  0.00    -0.393 OA
HETATM   14  H   UNK N   1      74.839  17.842 -14.841  0.00  0.00     0.210 HD
ENDBRANCH   4  13
BRANCH   5  15
HETATM   15  O   UNK N   1      75.758  22.440 -16.242  0.00  0.00    -0.393 OA
HETATM   16  H   UNK N   1      75.273  22.251 -15.404  0.00  0.00     0.210 HD
ENDBRANCH   5  15
BRANCH   6  17
HETATM   17  O   UNK N   1      76.597  20.842 -14.066  0.00  0.00    -0.390 OA
HETATM   18  H   UNK N   1      77.191  20.307 -13.476  0.00  0.00     0.210 HD
ENDBRANCH   6  17
TORSDOF 6
ENDMDL
MODEL 8
REMARK VINA RESULT:      -4.4     19.900     22.026
REMARK  6 active torsions:
REMARK  status: ('A' for Active; 'I' for Inactive)
REMARK    1  A    between atoms: C_7  and  O_1 
REMARK    2  A    between atoms: O_2  and  C_10 
REMARK    3  A    between atoms: O_3  and  C_11 
REMARK    4  A    between atoms: O_4  and  C_12 
REMARK    5  A    between atoms: O_5  and  C_13 
REMARK    6  A    between atoms: C_7  and  C_13 
ROOT
HETATM    1  C   UNK N   1      74.872  37.909  -9.688  0.00  0.00     0.147 C 
HETATM    2  C   UNK N   1      73.884  39.065 -10.006  0.00  0.00     0.083 C 
HETATM    3  C   UNK N   1      75.565  37.460 -10.998  0.00  0.00     0.083 C 
HETATM    4  C   UNK N   1      72.851  38.682 -11.089  0.00  0.00     0.152 C 
HETATM    5  C   UNK N   1      74.568  37.075 -12.111  0.00  0.00     0.152 C 
HETATM    6  C   UNK N   1      73.578  38.238 -12.379  0.00  0.00     0.175 C 
ENDROOT
BRANCH   1   7
HETATM    7  O   UNK N   1      74.190  36.812  -9.122  0.00  0.00    -0.379 OA
HETATM    8  H   UNK N   1      73.385  37.155  -8.652  0.00  0.00     0.211 HD
ENDBRANCH   1   7
BRANCH   1   9
HETATM    9  C   UNK N   1      75.935  38.406  -8.723  0.00  0.00     0.176 C 
HETATM   10  O   UNK N   1      76.650  39.350  -9.017  0.00  0.00    -0.648 OA
BRANCH   9  11
HETATM   11  O   UNK N   1      76.090  37.791  -7.527  0.00  0.00    -0.774 OA
HETATM   12  H   UNK N   1      76.948  37.764  -7.084  0.00  0.00     0.167 HD
ENDBRANCH   9  11
ENDBRANCH   1   9
BRANCH   4  13
HETATM   13  O   UNK N   1      72.041  39.791 -11.387  0.00  0.00    -0.393 OA
HETATM   14  H   UNK N   1      71.639  39.630 -12.280  0.00  0.00     0.210 HD
ENDBRANCH   4  13
BRANCH   5  15
HETATM   15  O   UNK N   1      73.922  35.851 -11.847  0.00  0.00    -0.393 OA
HETATM   16  H   UNK N   1      73.338  35.944 -11.058  0.00  0.00     0.210 HD
ENDBRANCH   5  15
BRANCH   6  17
HETATM   17  O   UNK N   1      72.632  37.868 -13.350  0.00  0.00    -0.390 OA
HETATM   18  H   UNK N   1      72.910  36.982 -13.703  0.00  0.00     0.210 HD
ENDBRANCH   6  17
TORSDOF 6
ENDMDL
MODEL 9
REMARK VINA RESULT:      -4.3     12.600     14.751
REMARK  6 active torsions:
REMARK  status: ('A' for Active; 'I' for Inactive)
REMARK    1  A    between atoms: C_7  and  O_1 
REMARK    2  A    between atoms: O_2  and  C_10 
REMARK    3  A    between atoms: O_3  and  C_11 
REMARK    4  A    between atoms: O_4  and  C_12 
REMARK    5  A    between atoms: O_5  and  C_13 
REMARK    6  A    between atoms: C_7  and  C_13 
ROOT
HETATM    1  C   UNK N   1      76.811  36.248  -1.515  0.00  0.00     0.147 C 
HETATM    2  C   UNK N   1      75.818  35.510  -2.454  0.00  0.00     0.083 C 
HETATM    3  C   UNK N   1      76.046  37.335  -0.720  0.00  0.00     0.083 C 
HETATM    4  C   UNK N   1      75.064  36.475  -3.397  0.00  0.00     0.152 C 
HETATM    5  C   UNK N   1      75.272  38.317  -1.624  0.00  0.00     0.152 C 
HETATM    6  C   UNK N   1      74.315  37.545  -2.569  0.00  0.00     0.175 C 
ENDROOT
BRANCH   1   7
HETATM    7  O   UNK N   1      77.843  36.856  -2.260  0.00  0.00    -0.379 OA
HETATM    8  H   UNK N   1      78.684  36.795  -1.734  0.00  0.00     0.211 HD
ENDBRANCH   1   7
BRANCH   1   9
HETATM    9  C   UNK N   1      77.406  35.256  -0.531  0.00  0.00     0.176 C 
HETATM   10  O   UNK N   1      78.586  35.312  -0.225  0.00  0.00    -0.648 OA
BRANCH   9  11
HETATM   11  O   UNK N   1      76.616  34.298   0.010  0.00  0.00    -0.774 OA
HETATM   12  H   UNK N   1      75.725  34.500   0.324  0.00  0.00     0.167 HD
ENDBRANCH   9  11
ENDBRANCH   1   9
BRANCH   4  13
HETATM   13  O   UNK N   1      74.127  35.758  -4.161  0.00  0.00    -0.393 OA
HETATM   14  H   UNK N   1      74.067  36.205  -5.045  0.00  0.00     0.210 HD
ENDBRANCH   4  13
BRANCH   5  15
HETATM   15  O   UNK N   1      76.130  39.199  -2.310  0.00  0.00    -0.393 OA
HETATM   16  H   UNK N   1      76.278  40.010  -1.769  0.00  0.00     0.210 HD
ENDBRANCH   5  15
BRANCH   6  17
HETATM   17  O   UNK N   1      73.653  38.432  -3.435  0.00  0.00    -0.390 OA
HETATM   18  H   UNK N   1      74.177  38.460  -4.278  0.00  0.00     0.210 HD
ENDBRANCH   6  17
TORSDOF 6
ENDMDL
