MODEL 1
REMARK VINA RESULT:      -4.2      0.000      0.000
REMARK  5 active torsions:
REMARK  status: ('A' for Active; 'I' for Inactive)
REMARK    1  A    between atoms: C_2  and  O_1 
REMARK    2  A    between atoms: C_2  and  C_3 
REMARK    3  A    between atoms: C_2  and  C_6 
REMARK    4  A    between atoms: C_3  and  C_4 
REMARK    5  A    between atoms: C_4  and  C_7 
ROOT
HETATM    1  C   UNK N   1      49.733  17.564  14.959  0.00  0.00     0.071 C 
HETATM    2  C   UNK N   1      49.983  17.917  16.442  0.00  0.00     0.050 C 
ENDROOT
BRANCH   1   3
HETATM    3  O   UNK N   1      50.719  18.252  14.219  0.00  0.00    -0.386 OA
HETATM    4  H   UNK N   1      50.507  19.221  14.231  0.00  0.00     0.211 HD
ENDBRANCH   1   3
BRANCH   1   5
HETATM    5  C   UNK N   1      49.909  16.033  14.720  0.00  0.00     0.045 C 
BRANCH   5   6
HETATM    6  C   UNK N   1      49.910  15.600  13.239  0.00  0.00     0.030 C 
BRANCH   6   7
HETATM    7  C   UNK N   1      49.698  14.110  13.105  0.00  0.00    -0.025 C 
HETATM    8  C   UNK N   1      50.463  13.275  12.359  0.00  0.00    -0.091 C 
HETATM    9  C   UNK N   1      50.137  11.802  12.330  0.00  0.00     0.042 C 
HETATM   10  C   UNK N   1      51.624  13.743  11.514  0.00  0.00     0.042 C 
ENDBRANCH   6   7
ENDBRANCH   5   6
ENDBRANCH   1   5
BRANCH   1  11
HETATM   11  C   UNK N   1      48.361  18.005  14.449  0.00  0.00    -0.000 C 
HETATM   12  C   UNK N   1      48.134  19.074  13.668  0.00  0.00     0.010 C 
ENDBRANCH   1  11
TORSDOF 5
ENDMDL
MODEL 2
REMARK VINA RESULT:      -4.1     32.938     33.779
REMARK  5 active torsions:
REMARK  status: ('A' for Active; 'I' for Inactive)
REMARK    1  A    between atoms: C_2  and  O_1 
REMARK    2  A    between atoms: C_2  and  C_3 
REMARK    3  A    between atoms: C_2  and  C_6 
REMARK    4  A    between atoms: C_3  and  C_4 
REMARK    5  A    between atoms: C_4  and  C_7 
ROOT
HETATM    1  C   UNK N   1      81.163  25.839   7.267  0.00  0.00     0.071 C 
HETATM    2  C   UNK N   1      81.938  26.549   8.399  0.00  0.00     0.050 C 
ENDROOT
BRANCH   1   3
HETATM    3  O   UNK N   1      80.524  24.730   7.862  0.00  0.00    -0.386 OA
HETATM    4  H   UNK N   1      79.609  24.653   7.487  0.00  0.00     0.211 HD
ENDBRANCH   1   3
BRANCH   1   5
HETATM    5  C   UNK N   1      80.075  26.782   6.669  0.00  0.00     0.045 C 
BRANCH   5   6
HETATM    6  C   UNK N   1      80.616  28.065   6.004  0.00  0.00     0.030 C 
BRANCH   6   7
HETATM    7  C   UNK N   1      79.574  28.701   5.114  0.00  0.00    -0.025 C 
HETATM    8  C   UNK N   1      79.414  28.445   3.791  0.00  0.00    -0.091 C 
HETATM    9  C   UNK N   1      78.319  29.150   3.029  0.00  0.00     0.042 C 
HETATM   10  C   UNK N   1      80.304  27.506   3.013  0.00  0.00     0.042 C 
ENDBRANCH   6   7
ENDBRANCH   5   6
ENDBRANCH   1   5
BRANCH   1  11
HETATM   11  C   UNK N   1      82.062  25.324   6.143  0.00  0.00    -0.000 C 
HETATM   12  C   UNK N   1      81.778  24.283   5.342  0.00  0.00     0.010 C 
ENDBRANCH   1  11
TORSDOF 5
ENDMDL
MODEL 3
REMARK VINA RESULT:      -3.9     34.959     36.464
REMARK  5 active torsions:
REMARK  status: ('A' for Active; 'I' for Inactive)
REMARK    1  A    between atoms: C_2  and  O_1 
REMARK    2  A    between atoms: C_2  and  C_3 
REMARK    3  A    between atoms: C_2  and  C_6 
REMARK    4  A    between atoms: C_3  and  C_4 
REMARK    5  A    between atoms: C_4  and  C_7 
ROOT
HETATM    1  C   UNK N   1      77.063  31.653  -6.059  0.00  0.00     0.071 C 
HETATM    2  C   UNK N   1      77.443  31.229  -7.495  0.00  0.00     0.050 C 
ENDROOT
BRANCH   1   3
HETATM    3  O   UNK N   1      75.945  32.506  -6.182  0.00  0.00    -0.386 OA
HETATM    4  H   UNK N   1      76.182  33.252  -6.792  0.00  0.00     0.211 HD
ENDBRANCH   1   3
BRANCH   1   5
HETATM    5  C   UNK N   1      76.651  30.411  -5.209  0.00  0.00     0.045 C 
BRANCH   5   6
HETATM    6  C   UNK N   1      76.891  29.047  -5.890  0.00  0.00     0.030 C 
BRANCH   6   7
HETATM    7  C   UNK N   1      76.957  27.932  -4.872  0.00  0.00    -0.025 C 
HETATM    8  C   UNK N   1      78.073  27.548  -4.204  0.00  0.00    -0.091 C 
HETATM    9  C   UNK N   1      77.985  26.422  -3.203  0.00  0.00     0.042 C 
HETATM   10  C   UNK N   1      79.431  28.169  -4.429  0.00  0.00     0.042 C 
ENDBRANCH   6   7
ENDBRANCH   5   6
ENDBRANCH   1   5
BRANCH   1  11
HETATM   11  C   UNK N   1      78.170  32.419  -5.335  0.00  0.00    -0.000 C 
HETATM   12  C   UNK N   1      78.875  31.955  -4.290  0.00  0.00     0.010 C 
ENDBRANCH   1  11
TORSDOF 5
ENDMDL
MODEL 4
REMARK VINA RESULT:      -3.8     33.142     34.444
REMARK  5 active torsions:
REMARK  status: ('A' for Active; 'I' for Inactive)
REMARK    1  A    between atoms: C_2  and  O_1 
REMARK    2  A    between atoms: C_2  and  C_3 
REMARK    3  A    between atoms: C_2  and  C_6 
REMARK    4  A    between atoms: C_3  and  C_4 
REMARK    5  A    between atoms: C_4  and  C_7 
ROOT
HETATM    1  C   UNK N   1      80.649  26.113   6.687  0.00  0.00     0.071 C 
HETATM    2  C   UNK N   1      80.832  26.802   5.317  0.00  0.00     0.050 C 
ENDROOT
BRANCH   1   3
HETATM    3  O   UNK N   1      79.261  26.107   6.943  0.00  0.00    -0.386 OA
HETATM    4  H   UNK N   1      78.786  25.846   6.112  0.00  0.00     0.211 HD
ENDBRANCH   1   3
BRANCH   1   5
HETATM    5  C   UNK N   1      81.153  24.638   6.632  0.00  0.00     0.045 C 
BRANCH   5   6
HETATM    6  C   UNK N   1      81.937  24.263   5.357  0.00  0.00     0.030 C 
BRANCH   6   7
HETATM    7  C   UNK N   1      83.411  24.100   5.649  0.00  0.00    -0.025 C 
HETATM    8  C   UNK N   1      84.182  23.068   5.227  0.00  0.00    -0.091 C 
HETATM    9  C   UNK N   1      85.647  23.043   5.588  0.00  0.00     0.042 C 
HETATM   10  C   UNK N   1      83.647  21.901   4.430  0.00  0.00     0.042 C 
ENDBRANCH   6   7
ENDBRANCH   5   6
ENDBRANCH   1   5
BRANCH   1  11
HETATM   11  C   UNK N   1      81.343  26.845   7.836  0.00  0.00    -0.000 C 
HETATM   12  C   UNK N   1      82.118  26.263   8.766  0.00  0.00     0.010 C 
ENDBRANCH   1  11
TORSDOF 5
ENDMDL
MODEL 5
REMARK VINA RESULT:      -3.7     33.671     35.011
REMARK  5 active torsions:
REMARK  status: ('A' for Active; 'I' for Inactive)
REMARK    1  A    between atoms: C_2  and  O_1 
REMARK    2  A    between atoms: C_2  and  C_3 
REMARK    3  A    between atoms: C_2  and  C_6 
REMARK    4  A    between atoms: C_3  and  C_4 
REMARK    5  A    between atoms: C_4  and  C_7 
ROOT
HETATM    1  C   UNK N   1      80.605  26.258   6.646  0.00  0.00     0.071 C 
HETATM    2  C   UNK N   1      80.984  24.763   6.722  0.00  0.00     0.050 C 
ENDROOT
BRANCH   1   3
HETATM    3  O   UNK N   1      79.196  26.312   6.724  0.00  0.00    -0.386 OA
HETATM    4  H   UNK N   1      78.858  25.416   6.982  0.00  0.00     0.211 HD
ENDBRANCH   1   3
BRANCH   1   5
HETATM    5  C   UNK N   1      81.202  27.040   7.856  0.00  0.00     0.045 C 
BRANCH   5   6
HETATM    6  C   UNK N   1      82.288  26.284   8.649  0.00  0.00     0.030 C 
BRANCH   6   7
HETATM    7  C   UNK N   1      83.600  27.033   8.630  0.00  0.00    -0.025 C 
HETATM    8  C   UNK N   1      84.588  26.856   7.718  0.00  0.00    -0.091 C 
HETATM    9  C   UNK N   1      85.844  27.686   7.817  0.00  0.00     0.042 C 
HETATM   10  C   UNK N   1      84.521  25.835   6.606  0.00  0.00     0.042 C 
ENDBRANCH   6   7
ENDBRANCH   5   6
ENDBRANCH   1   5
BRANCH   1  11
HETATM   11  C   UNK N   1      81.035  26.931   5.343  0.00  0.00    -0.000 C 
HETATM   12  C   UNK N   1      81.777  28.048   5.258  0.00  0.00     0.010 C 
ENDBRANCH   1  11
TORSDOF 5
ENDMDL
MODEL 6
REMARK VINA RESULT:      -3.7     32.933     34.020
REMARK  5 active torsions:
REMARK  status: ('A' for Active; 'I' for Inactive)
REMARK    1  A    between atoms: C_2  and  O_1 
REMARK    2  A    between atoms: C_2  and  C_3 
REMARK    3  A    between atoms: C_2  and  C_6 
REMARK    4  A    between atoms: C_3  and  C_4 
REMARK    5  A    between atoms: C_4  and  C_7 
ROOT
HETATM    1  C   UNK N   1      81.705  27.651   7.338  0.00  0.00     0.071 C 
HETATM    2  C   UNK N   1      82.863  28.003   6.378  0.00  0.00     0.050 C 
ENDROOT
BRANCH   1   3
HETATM    3  O   UNK N   1      81.878  28.465   8.479  0.00  0.00    -0.386 OA
HETATM    4  H   UNK N   1      81.983  27.880   9.273  0.00  0.00     0.211 HD
ENDBRANCH   1   3
BRANCH   1   5
HETATM    5  C   UNK N   1      80.328  27.988   6.688  0.00  0.00     0.045 C 
BRANCH   5   6
HETATM    6  C   UNK N   1      80.409  28.724   5.334  0.00  0.00     0.030 C 
BRANCH   6   7
HETATM    7  C   UNK N   1      79.645  27.981   4.262  0.00  0.00    -0.025 C 
HETATM    8  C   UNK N   1      78.808  28.552   3.361  0.00  0.00    -0.091 C 
HETATM    9  C   UNK N   1      78.119  27.683   2.338  0.00  0.00     0.042 C 
HETATM   10  C   UNK N   1      78.492  30.029   3.339  0.00  0.00     0.042 C 
ENDBRANCH   6   7
ENDBRANCH   5   6
ENDBRANCH   1   5
BRANCH   1  11
HETATM   11  C   UNK N   1      81.710  26.191   7.790  0.00  0.00    -0.000 C 
HETATM   12  C   UNK N   1      81.031  25.196   7.196  0.00  0.00     0.010 C 
ENDBRANCH   1  11
TORSDOF 5
ENDMDL
MODEL 7
REMARK VINA RESULT:      -3.6      1.903      2.798
REMARK  5 active torsions:
REMARK  status: ('A' for Active; 'I' for Inactive)
REMARK    1  A    between atoms: C_2  and  O_1 
REMARK    2  A    between atoms: C_2  and  C_3 
REMARK    3  A    between atoms: C_2  and  C_6 
REMARK    4  A    between atoms: C_3  and  C_4 
REMARK    5  A    between atoms: C_4  and  C_7 
ROOT
HETATM    1  C   UNK N   1      49.728  17.570  14.216  0.00  0.00     0.071 C 
HETATM    2  C   UNK N   1      49.892  17.336  15.734  0.00  0.00     0.050 C 
ENDROOT
BRANCH   1   3
HETATM    3  O   UNK N   1      50.858  18.311  13.807  0.00  0.00    -0.386 OA
HETATM    4  H   UNK N   1      51.661  17.940  14.257  0.00  0.00     0.211 HD
ENDBRANCH   1   3
BRANCH   1   5
HETATM    5  C   UNK N   1      49.717  16.212  13.448  0.00  0.00     0.045 C 
BRANCH   5   6
HETATM    6  C   UNK N   1      49.683  14.956  14.345  0.00  0.00     0.030 C 
BRANCH   6   7
HETATM    7  C   UNK N   1      48.520  14.061  13.986  0.00  0.00    -0.025 C 
HETATM    8  C   UNK N   1      47.286  14.120  14.546  0.00  0.00    -0.091 C 
HETATM    9  C   UNK N   1      46.215  13.165  14.078  0.00  0.00     0.042 C 
HETATM   10  C   UNK N   1      46.921  15.080  15.654  0.00  0.00     0.042 C 
ENDBRANCH   6   7
ENDBRANCH   5   6
ENDBRANCH   1   5
BRANCH   1  11
HETATM   11  C   UNK N   1      48.478  18.370  13.853  0.00  0.00    -0.000 C 
HETATM   12  C   UNK N   1      47.557  18.805  14.730  0.00  0.00     0.010 C 
ENDBRANCH   1  11
TORSDOF 5
ENDMDL
MODEL 8
REMARK VINA RESULT:      -3.6     36.240     37.775
REMARK  5 active torsions:
REMARK  status: ('A' for Active; 'I' for Inactive)
REMARK    1  A    between atoms: C_2  and  O_1 
REMARK    2  A    between atoms: C_2  and  C_3 
REMARK    3  A    between atoms: C_2  and  C_6 
REMARK    4  A    between atoms: C_3  and  C_4 
REMARK    5  A    between atoms: C_4  and  C_7 
ROOT
HETATM    1  C   UNK N   1      77.024  31.391  -5.628  0.00  0.00     0.071 C 
HETATM    2  C   UNK N   1      78.204  32.273  -5.164  0.00  0.00     0.050 C 
ENDROOT
BRANCH   1   3
HETATM    3  O   UNK N   1      75.848  32.098  -5.296  0.00  0.00    -0.386 OA
HETATM    4  H   UNK N   1      75.762  32.875  -5.906  0.00  0.00     0.211 HD
ENDBRANCH   1   3
BRANCH   1   5
HETATM    5  C   UNK N   1      77.063  31.187  -7.174  0.00  0.00     0.045 C 
BRANCH   5   6
HETATM    6  C   UNK N   1      78.455  31.359  -7.819  0.00  0.00     0.030 C 
BRANCH   6   7
HETATM    7  C   UNK N   1      78.987  30.039  -8.328  0.00  0.00    -0.025 C 
HETATM    8  C   UNK N   1      79.861  29.241  -7.665  0.00  0.00    -0.091 C 
HETATM    9  C   UNK N   1      80.298  27.941  -8.295  0.00  0.00     0.042 C 
HETATM   10  C   UNK N   1      80.460  29.596  -6.325  0.00  0.00     0.042 C 
ENDBRANCH   6   7
ENDBRANCH   5   6
ENDBRANCH   1   5
BRANCH   1  11
HETATM   11  C   UNK N   1      76.971  30.028  -4.937  0.00  0.00    -0.000 C 
HETATM   12  C   UNK N   1      76.750  28.856  -5.556  0.00  0.00     0.010 C 
ENDBRANCH   1  11
TORSDOF 5
ENDMDL
MODEL 9
REMARK VINA RESULT:      -3.5     34.910     35.765
REMARK  5 active torsions:
REMARK  status: ('A' for Active; 'I' for Inactive)
REMARK    1  A    between atoms: C_2  and  O_1 
REMARK    2  A    between atoms: C_2  and  C_3 
REMARK    3  A    between atoms: C_2  and  C_6 
REMARK    4  A    between atoms: C_3  and  C_4 
REMARK    5  A    between atoms: C_4  and  C_7 
ROOT
HETATM    1  C   UNK N   1      78.483  36.092  10.218  0.00  0.00     0.071 C 
HETATM    2  C   UNK N   1      78.862  37.503  10.719  0.00  0.00     0.050 C 
ENDROOT
BRANCH   1   3
HETATM    3  O   UNK N   1      77.390  35.673  11.007  0.00  0.00    -0.386 OA
HETATM    4  H   UNK N   1      77.140  34.751  10.741  0.00  0.00     0.211 HD
ENDBRANCH   1   3
BRANCH   1   5
HETATM    5  C   UNK N   1      78.032  36.139   8.726  0.00  0.00     0.045 C 
BRANCH   5   6
HETATM    6  C   UNK N   1      79.171  36.358   7.707  0.00  0.00     0.030 C 
BRANCH   6   7
HETATM    7  C   UNK N   1      78.684  36.149   6.292  0.00  0.00    -0.025 C 
HETATM    8  C   UNK N   1      78.230  37.127   5.469  0.00  0.00    -0.091 C 
HETATM    9  C   UNK N   1      77.786  36.769   4.072  0.00  0.00     0.042 C 
HETATM   10  C   UNK N   1      78.108  38.573   5.885  0.00  0.00     0.042 C 
ENDBRANCH   6   7
ENDBRANCH   5   6
ENDBRANCH   1   5
BRANCH   1  11
HETATM   11  C   UNK N   1      79.605  35.066  10.378  0.00  0.00    -0.000 C 
HETATM   12  C   UNK N   1      79.431  33.776  10.710  0.00  0.00     0.010 C 
ENDBRANCH   1  11
TORSDOF 5
ENDMDL
