MODEL 1
REMARK VINA RESULT:      -4.9      0.000      0.000
REMARK  5 active torsions:
REMARK  status: ('A' for Active; 'I' for Inactive)
REMARK    1  A    between atoms: O_1  and  C_8 
REMARK    2  A    between atoms: O_2  and  C_9 
REMARK    3  A    between atoms: O_3  and  C_13 
REMARK    4  A    between atoms: C_5  and  C_11 
REMARK    5  A    between atoms: C_12  and  C_13 
ROOT
HETATM    1  C   UNK N   1      76.981  29.534  -5.782  0.00  0.00    -0.033 A 
HETATM    2  C   UNK N   1      76.612  30.670  -5.042  0.00  0.00     0.050 A 
HETATM    3  C   UNK N   1      77.353  29.693  -7.134  0.00  0.00     0.014 A 
HETATM    4  C   UNK N   1      76.592  31.939  -5.639  0.00  0.00     0.099 A 
HETATM    5  C   UNK N   1      76.963  32.081  -6.988  0.00  0.00     0.098 A 
HETATM    6  C   UNK N   1      77.347  30.956  -7.725  0.00  0.00     0.040 A 
ENDROOT
BRANCH   1   7
HETATM    7  C   UNK N   1      76.960  28.200  -5.113  0.00  0.00     0.018 C 
HETATM    8  C   UNK N   1      77.942  27.771  -4.294  0.00  0.00     0.082 C 
BRANCH   8   9
HETATM    9  C   UNK N   1      77.917  26.442  -3.651  0.00  0.00     0.165 C 
HETATM   10  O   UNK N   1      78.746  25.589  -3.935  0.00  0.00    -0.647 OA
BRANCH   9  11
HETATM   11  O   UNK N   1      76.960  26.177  -2.738  0.00  0.00    -0.773 OA
HETATM   12  H   UNK N   1      76.957  26.608  -1.871  0.00  0.00     0.167 HD
ENDBRANCH   9  11
ENDBRANCH   8   9
ENDBRANCH   1   7
BRANCH   4  13
HETATM   13  O   UNK N   1      76.209  33.005  -4.907  0.00  0.00    -0.358 OA
HETATM   14  H   UNK N   1      75.914  33.833  -5.315  0.00  0.00     0.218 HD
ENDBRANCH   4  13
BRANCH   5  15
HETATM   15  O   UNK N   1      76.948  33.298  -7.572  0.00  0.00    -0.358 OA
HETATM   16  H   UNK N   1      77.667  33.933  -7.440  0.00  0.00     0.218 HD
ENDBRANCH   5  15
TORSDOF 5
ENDMDL
MODEL 2
REMARK VINA RESULT:      -4.8     34.608     36.361
REMARK  5 active torsions:
REMARK  status: ('A' for Active; 'I' for Inactive)
REMARK    1  A    between atoms: O_1  and  C_8 
REMARK    2  A    between atoms: O_2  and  C_9 
REMARK    3  A    between atoms: O_3  and  C_13 
REMARK    4  A    between atoms: C_5  and  C_11 
REMARK    5  A    between atoms: C_12  and  C_13 
ROOT
HETATM    1  C   UNK N   1      49.732  14.431  13.184  0.00  0.00    -0.033 A 
HETATM    2  C   UNK N   1      50.849  14.623  12.353  0.00  0.00     0.050 A 
HETATM    3  C   UNK N   1      49.320  13.114  13.476  0.00  0.00     0.014 A 
HETATM    4  C   UNK N   1      51.531  13.527  11.804  0.00  0.00     0.099 A 
HETATM    5  C   UNK N   1      51.106  12.221  12.103  0.00  0.00     0.098 A 
HETATM    6  C   UNK N   1      50.005  12.023  12.943  0.00  0.00     0.040 A 
ENDROOT
BRANCH   1   7
HETATM    7  C   UNK N   1      49.020  15.627  13.722  0.00  0.00     0.018 C 
HETATM    8  C   UNK N   1      49.509  16.881  13.628  0.00  0.00     0.082 C 
BRANCH   8   9
HETATM    9  C   UNK N   1      48.801  18.054  14.179  0.00  0.00     0.165 C 
HETATM   10  O   UNK N   1      48.847  18.313  15.372  0.00  0.00    -0.647 OA
BRANCH   9  11
HETATM   11  O   UNK N   1      48.096  18.843  13.342  0.00  0.00    -0.773 OA
HETATM   12  H   UNK N   1      47.173  19.071  13.522  0.00  0.00     0.167 HD
ENDBRANCH   9  11
ENDBRANCH   8   9
ENDBRANCH   1   7
BRANCH   4  13
HETATM   13  O   UNK N   1      52.584  13.747  10.991  0.00  0.00    -0.358 OA
HETATM   14  H   UNK N   1      53.414  13.255  11.075  0.00  0.00     0.218 HD
ENDBRANCH   4  13
BRANCH   5  15
HETATM   15  O   UNK N   1      51.757  11.159  11.581  0.00  0.00    -0.358 OA
HETATM   16  H   UNK N   1      51.324  10.298  11.479  0.00  0.00     0.218 HD
ENDBRANCH   5  15
TORSDOF 5
ENDMDL
MODEL 3
REMARK VINA RESULT:      -4.8      0.788      1.883
REMARK  5 active torsions:
REMARK  status: ('A' for Active; 'I' for Inactive)
REMARK    1  A    between atoms: O_1  and  C_8 
REMARK    2  A    between atoms: O_2  and  C_9 
REMARK    3  A    between atoms: O_3  and  C_13 
REMARK    4  A    between atoms: C_5  and  C_11 
REMARK    5  A    between atoms: C_12  and  C_13 
ROOT
HETATM    1  C   UNK N   1      77.036  29.398  -5.668  0.00  0.00    -0.033 A 
HETATM    2  C   UNK N   1      77.381  29.585  -7.017  0.00  0.00     0.050 A 
HETATM    3  C   UNK N   1      76.640  30.517  -4.906  0.00  0.00     0.014 A 
HETATM    4  C   UNK N   1      77.355  30.864  -7.594  0.00  0.00     0.099 A 
HETATM    5  C   UNK N   1      76.961  31.969  -6.820  0.00  0.00     0.098 A 
HETATM    6  C   UNK N   1      76.599  31.787  -5.481  0.00  0.00     0.040 A 
ENDROOT
BRANCH   1   7
HETATM    7  C   UNK N   1      77.106  28.025  -5.090  0.00  0.00     0.018 C 
HETATM    8  C   UNK N   1      77.928  27.694  -4.073  0.00  0.00     0.082 C 
BRANCH   8   9
HETATM    9  C   UNK N   1      77.999  26.326  -3.520  0.00  0.00     0.165 C 
HETATM   10  O   UNK N   1      78.861  25.542  -3.887  0.00  0.00    -0.647 OA
BRANCH   9  11
HETATM   11  O   UNK N   1      77.090  25.948  -2.596  0.00  0.00    -0.773 OA
HETATM   12  H   UNK N   1      77.284  25.248  -1.956  0.00  0.00     0.167 HD
ENDBRANCH   9  11
ENDBRANCH   8   9
ENDBRANCH   1   7
BRANCH   4  13
HETATM   13  O   UNK N   1      77.717  31.011  -8.885  0.00  0.00    -0.358 OA
HETATM   14  H   UNK N   1      78.584  31.359  -9.141  0.00  0.00     0.218 HD
ENDBRANCH   4  13
BRANCH   5  15
HETATM   15  O   UNK N   1      76.931  33.204  -7.366  0.00  0.00    -0.358 OA
HETATM   16  H   UNK N   1      77.155  33.992  -6.850  0.00  0.00     0.218 HD
ENDBRANCH   5  15
TORSDOF 5
ENDMDL
MODEL 4
REMARK VINA RESULT:      -4.8     35.254     36.499
REMARK  5 active torsions:
REMARK  status: ('A' for Active; 'I' for Inactive)
REMARK    1  A    between atoms: O_1  and  C_8 
REMARK    2  A    between atoms: O_2  and  C_9 
REMARK    3  A    between atoms: O_3  and  C_13 
REMARK    4  A    between atoms: C_5  and  C_11 
REMARK    5  A    between atoms: C_12  and  C_13 
ROOT
HETATM    1  C   UNK N   1      49.272  16.181  13.845  0.00  0.00    -0.033 A 
HETATM    2  C   UNK N   1      47.971  16.293  14.364  0.00  0.00     0.050 A 
HETATM    3  C   UNK N   1      50.029  17.355  13.650  0.00  0.00     0.014 A 
HETATM    4  C   UNK N   1      47.423  17.549  14.663  0.00  0.00     0.099 A 
HETATM    5  C   UNK N   1      48.191  18.710  14.460  0.00  0.00     0.098 A 
HETATM    6  C   UNK N   1      49.492  18.604  13.960  0.00  0.00     0.040 A 
ENDROOT
BRANCH   1   7
HETATM    7  C   UNK N   1      49.802  14.826  13.514  0.00  0.00     0.018 C 
HETATM    8  C   UNK N   1      50.559  14.577  12.425  0.00  0.00     0.082 C 
BRANCH   8   9
HETATM    9  C   UNK N   1      51.065  13.228  12.101  0.00  0.00     0.165 C 
HETATM   10  O   UNK N   1      50.297  12.309  11.856  0.00  0.00    -0.647 OA
BRANCH   9  11
HETATM   11  O   UNK N   1      52.398  13.019  12.078  0.00  0.00    -0.773 OA
HETATM   12  H   UNK N   1      52.978  13.394  12.756  0.00  0.00     0.167 HD
ENDBRANCH   9  11
ENDBRANCH   8   9
ENDBRANCH   1   7
BRANCH   4  13
HETATM   13  O   UNK N   1      46.162  17.622  15.136  0.00  0.00    -0.358 OA
HETATM   14  H   UNK N   1      45.810  16.977  15.768  0.00  0.00     0.218 HD
ENDBRANCH   4  13
BRANCH   5  15
HETATM   15  O   UNK N   1      47.673  19.924  14.747  0.00  0.00    -0.358 OA
HETATM   16  H   UNK N   1      48.112  20.741  14.469  0.00  0.00     0.218 HD
ENDBRANCH   5  15
TORSDOF 5
ENDMDL
MODEL 5
REMARK VINA RESULT:      -4.7      1.988      2.848
REMARK  5 active torsions:
REMARK  status: ('A' for Active; 'I' for Inactive)
REMARK    1  A    between atoms: O_1  and  C_8 
REMARK    2  A    between atoms: O_2  and  C_9 
REMARK    3  A    between atoms: O_3  and  C_13 
REMARK    4  A    between atoms: C_5  and  C_11 
REMARK    5  A    between atoms: C_12  and  C_13 
ROOT
HETATM    1  C   UNK N   1      77.234  28.200  -5.001  0.00  0.00    -0.033 A 
HETATM    2  C   UNK N   1      77.550  27.787  -6.307  0.00  0.00     0.050 A 
HETATM    3  C   UNK N   1      76.881  29.548  -4.781  0.00  0.00     0.014 A 
HETATM    4  C   UNK N   1      77.536  28.700  -7.371  0.00  0.00     0.099 A 
HETATM    5  C   UNK N   1      77.184  30.041  -7.135  0.00  0.00     0.098 A 
HETATM    6  C   UNK N   1      76.853  30.454  -5.840  0.00  0.00     0.040 A 
ENDROOT
BRANCH   1   7
HETATM    7  C   UNK N   1      77.290  27.200  -3.895  0.00  0.00     0.018 C 
HETATM    8  C   UNK N   1      78.431  26.596  -3.504  0.00  0.00     0.082 C 
BRANCH   8   9
HETATM    9  C   UNK N   1      78.469  25.596  -2.417  0.00  0.00     0.165 C 
HETATM   10  O   UNK N   1      78.877  25.893  -1.304  0.00  0.00    -0.647 OA
BRANCH   9  11
HETATM   11  O   UNK N   1      78.046  24.340  -2.671  0.00  0.00    -0.773 OA
HETATM   12  H   UNK N   1      77.112  24.099  -2.597  0.00  0.00     0.167 HD
ENDBRANCH   9  11
ENDBRANCH   8   9
ENDBRANCH   1   7
BRANCH   4  13
HETATM   13  O   UNK N   1      77.869  28.275  -8.607  0.00  0.00    -0.358 OA
HETATM   14  H   UNK N   1      77.431  27.521  -9.029  0.00  0.00     0.218 HD
ENDBRANCH   4  13
BRANCH   5  15
HETATM   15  O   UNK N   1      77.167  30.928  -8.153  0.00  0.00    -0.358 OA
HETATM   16  H   UNK N   1      77.182  31.883  -7.994  0.00  0.00     0.218 HD
ENDBRANCH   5  15
TORSDOF 5
ENDMDL
MODEL 6
REMARK VINA RESULT:      -4.5      7.423      9.422
REMARK  5 active torsions:
REMARK  status: ('A' for Active; 'I' for Inactive)
REMARK    1  A    between atoms: O_1  and  C_8 
REMARK    2  A    between atoms: O_2  and  C_9 
REMARK    3  A    between atoms: O_3  and  C_13 
REMARK    4  A    between atoms: C_5  and  C_11 
REMARK    5  A    between atoms: C_12  and  C_13 
ROOT
HETATM    1  C   UNK N   1      76.063  37.078  -0.870  0.00  0.00    -0.033 A 
HETATM    2  C   UNK N   1      75.151  37.931  -1.512  0.00  0.00     0.050 A 
HETATM    3  C   UNK N   1      76.339  35.820  -1.446  0.00  0.00     0.014 A 
HETATM    4  C   UNK N   1      74.506  37.534  -2.693  0.00  0.00     0.099 A 
HETATM    5  C   UNK N   1      74.790  36.277  -3.252  0.00  0.00     0.098 A 
HETATM    6  C   UNK N   1      75.711  35.429  -2.627  0.00  0.00     0.040 A 
ENDROOT
BRANCH   1   7
HETATM    7  C   UNK N   1      76.703  37.530   0.400  0.00  0.00     0.018 C 
HETATM    8  C   UNK N   1      76.902  36.715   1.457  0.00  0.00     0.082 C 
BRANCH   8   9
HETATM    9  C   UNK N   1      77.523  37.180   2.714  0.00  0.00     0.165 C 
HETATM   10  O   UNK N   1      77.855  38.347   2.857  0.00  0.00    -0.647 OA
BRANCH   9  11
HETATM   11  O   UNK N   1      77.722  36.292   3.711  0.00  0.00    -0.773 OA
HETATM   12  H   UNK N   1      77.422  36.473   4.613  0.00  0.00     0.167 HD
ENDBRANCH   9  11
ENDBRANCH   8   9
ENDBRANCH   1   7
BRANCH   4  13
HETATM   13  O   UNK N   1      73.617  38.369  -3.269  0.00  0.00    -0.358 OA
HETATM   14  H   UNK N   1      73.563  39.307  -3.036  0.00  0.00     0.218 HD
ENDBRANCH   4  13
BRANCH   5  15
HETATM   15  O   UNK N   1      74.176  35.885  -4.390  0.00  0.00    -0.358 OA
HETATM   16  H   UNK N   1      73.832  34.987  -4.498  0.00  0.00     0.218 HD
ENDBRANCH   5  15
TORSDOF 5
ENDMDL
MODEL 7
REMARK VINA RESULT:      -4.5     35.390     36.896
REMARK  5 active torsions:
REMARK  status: ('A' for Active; 'I' for Inactive)
REMARK    1  A    between atoms: O_1  and  C_8 
REMARK    2  A    between atoms: O_2  and  C_9 
REMARK    3  A    between atoms: O_3  and  C_13 
REMARK    4  A    between atoms: C_5  and  C_11 
REMARK    5  A    between atoms: C_12  and  C_13 
ROOT
HETATM    1  C   UNK N   1      50.117  14.675  13.052  0.00  0.00    -0.033 A 
HETATM    2  C   UNK N   1      49.121  13.829  13.570  0.00  0.00     0.050 A 
HETATM    3  C   UNK N   1      51.068  14.139  12.158  0.00  0.00     0.014 A 
HETATM    4  C   UNK N   1      49.084  12.470  13.225  0.00  0.00     0.099 A 
HETATM    5  C   UNK N   1      50.040  11.951  12.335  0.00  0.00     0.098 A 
HETATM    6  C   UNK N   1      51.023  12.791  11.803  0.00  0.00     0.040 A 
ENDROOT
BRANCH   1   7
HETATM    7  C   UNK N   1      50.135  16.107  13.470  0.00  0.00     0.018 C 
HETATM    8  C   UNK N   1      49.018  16.805  13.761  0.00  0.00     0.082 C 
BRANCH   8   9
HETATM    9  C   UNK N   1      49.049  18.227  14.158  0.00  0.00     0.165 C 
HETATM   10  O   UNK N   1      48.175  19.001  13.796  0.00  0.00    -0.647 OA
BRANCH   9  11
HETATM   11  O   UNK N   1      50.064  18.667  14.931  0.00  0.00    -0.773 OA
HETATM   12  H   UNK N   1      49.899  19.190  15.729  0.00  0.00     0.167 HD
ENDBRANCH   9  11
ENDBRANCH   8   9
ENDBRANCH   1   7
BRANCH   4  13
HETATM   13  O   UNK N   1      48.130  11.682  13.760  0.00  0.00    -0.358 OA
HETATM   14  H   UNK N   1      48.251  10.727  13.870  0.00  0.00     0.218 HD
ENDBRANCH   4  13
BRANCH   5  15
HETATM   15  O   UNK N   1      50.012  10.644  11.995  0.00  0.00    -0.358 OA
HETATM   16  H   UNK N   1      49.362  10.035  12.374  0.00  0.00     0.218 HD
ENDBRANCH   5  15
TORSDOF 5
ENDMDL
MODEL 8
REMARK VINA RESULT:      -4.4     11.430     14.163
REMARK  5 active torsions:
REMARK  status: ('A' for Active; 'I' for Inactive)
REMARK    1  A    between atoms: O_1  and  C_8 
REMARK    2  A    between atoms: O_2  and  C_9 
REMARK    3  A    between atoms: O_3  and  C_13 
REMARK    4  A    between atoms: C_5  and  C_11 
REMARK    5  A    between atoms: C_12  and  C_13 
ROOT
HETATM    1  C   UNK N   1      81.621  28.082   6.971  0.00  0.00    -0.033 A 
HETATM    2  C   UNK N   1      81.283  27.115   7.933  0.00  0.00     0.050 A 
HETATM    3  C   UNK N   1      82.936  28.593   6.953  0.00  0.00     0.014 A 
HETATM    4  C   UNK N   1      82.227  26.679   8.875  0.00  0.00     0.099 A 
HETATM    5  C   UNK N   1      83.532  27.200   8.845  0.00  0.00     0.098 A 
HETATM    6  C   UNK N   1      83.880  28.150   7.880  0.00  0.00     0.040 A 
ENDROOT
BRANCH   1   7
HETATM    7  C   UNK N   1      80.577  28.536   6.008  0.00  0.00     0.018 C 
HETATM    8  C   UNK N   1      80.076  27.746   5.036  0.00  0.00     0.082 C 
BRANCH   8   9
HETATM    9  C   UNK N   1      79.053  28.214   4.078  0.00  0.00     0.165 C 
HETATM   10  O   UNK N   1      79.068  27.847   2.913  0.00  0.00    -0.647 OA
BRANCH   9  11
HETATM   11  O   UNK N   1      78.094  29.059   4.510  0.00  0.00    -0.773 OA
HETATM   12  H   UNK N   1      77.670  29.689   3.909  0.00  0.00     0.167 HD
ENDBRANCH   9  11
ENDBRANCH   8   9
ENDBRANCH   1   7
BRANCH   4  13
HETATM   13  O   UNK N   1      81.862  25.768   9.800  0.00  0.00    -0.358 OA
HETATM   14  H   UNK N   1      81.040  25.260   9.728  0.00  0.00     0.218 HD
ENDBRANCH   4  13
BRANCH   5  15
HETATM   15  O   UNK N   1      84.449  26.786   9.747  0.00  0.00    -0.358 OA
HETATM   16  H   UNK N   1      84.219  26.644  10.676  0.00  0.00     0.218 HD
ENDBRANCH   5  15
TORSDOF 5
ENDMDL
MODEL 9
REMARK VINA RESULT:      -4.3      1.698      5.439
REMARK  5 active torsions:
REMARK  status: ('A' for Active; 'I' for Inactive)
REMARK    1  A    between atoms: O_1  and  C_8 
REMARK    2  A    between atoms: O_2  and  C_9 
REMARK    3  A    between atoms: O_3  and  C_13 
REMARK    4  A    between atoms: C_5  and  C_11 
REMARK    5  A    between atoms: C_12  and  C_13 
ROOT
HETATM    1  C   UNK N   1      77.040  30.329  -6.041  0.00  0.00    -0.033 A 
HETATM    2  C   UNK N   1      76.796  29.281  -5.138  0.00  0.00     0.050 A 
HETATM    3  C   UNK N   1      77.610  30.026  -7.296  0.00  0.00     0.014 A 
HETATM    4  C   UNK N   1      77.131  27.959  -5.465  0.00  0.00     0.099 A 
HETATM    5  C   UNK N   1      77.700  27.674  -6.719  0.00  0.00     0.098 A 
HETATM    6  C   UNK N   1      77.930  28.711  -7.629  0.00  0.00     0.040 A 
ENDROOT
BRANCH   1   7
HETATM    7  C   UNK N   1      76.695  31.723  -5.639  0.00  0.00     0.018 C 
HETATM    8  C   UNK N   1      77.620  32.640  -5.286  0.00  0.00     0.082 C 
BRANCH   8   9
HETATM    9  C   UNK N   1      77.263  34.013  -4.875  0.00  0.00     0.165 C 
HETATM   10  O   UNK N   1      78.065  34.929  -4.977  0.00  0.00    -0.647 OA
BRANCH   9  11
HETATM   11  O   UNK N   1      76.029  34.246  -4.380  0.00  0.00    -0.773 OA
HETATM   12  H   UNK N   1      75.794  35.104  -3.997  0.00  0.00     0.167 HD
ENDBRANCH   9  11
ENDBRANCH   8   9
ENDBRANCH   1   7
BRANCH   4  13
HETATM   13  O   UNK N   1      76.905  26.980  -4.564  0.00  0.00    -0.358 OA
HETATM   14  H   UNK N   1      76.363  27.122  -3.774  0.00  0.00     0.218 HD
ENDBRANCH   4  13
BRANCH   5  15
HETATM   15  O   UNK N   1      78.024  26.404  -7.045  0.00  0.00    -0.358 OA
HETATM   16  H   UNK N   1      77.442  25.661  -6.830  0.00  0.00     0.218 HD
ENDBRANCH   5  15
TORSDOF 5
ENDMDL
