MODEL 1
REMARK VINA RESULT:      -4.2      0.000      0.000
REMARK  2 active torsions:
REMARK  status: ('A' for Active; 'I' for Inactive)
REMARK    1  A    between atoms: O_1  and  C_6 
REMARK    2  A    between atoms: C_2  and  C_3 
ROOT
HETATM    1  C   UNK N   1      77.291  30.722  -6.883  0.00  0.00    -0.022 A 
HETATM    2  C   UNK N   1      76.807  31.990  -6.437  0.00  0.00     0.072 A 
HETATM    3  C   UNK N   1      78.226  30.697  -7.943  0.00  0.00     0.011 A 
HETATM    4  C   UNK N   1      78.203  33.114  -8.091  0.00  0.00    -0.059 A 
HETATM    5  C   UNK N   1      77.278  33.163  -7.043  0.00  0.00     0.043 A 
HETATM    6  C   UNK N   1      78.669  31.876  -8.541  0.00  0.00     0.007 A 
HETATM    7  C   UNK N   1      78.685  34.388  -8.721  0.00  0.00     0.048 C 
ENDROOT
BRANCH   1   8
HETATM    8  C   UNK N   1      76.852  29.394  -6.262  0.00  0.00     0.013 C 
HETATM    9  C   UNK N   1      77.354  29.280  -4.815  0.00  0.00     0.015 C 
HETATM   10  C   UNK N   1      77.337  28.206  -7.103  0.00  0.00     0.015 C 
ENDBRANCH   1   8
BRANCH   2  11
HETATM   11  O   UNK N   1      75.897  32.129  -5.445  0.00  0.00    -0.360 OA
HETATM   12  H   UNK N   1      76.083  32.081  -4.502  0.00  0.00     0.217 HD
ENDBRANCH   2  11
TORSDOF 2
ENDMDL
MODEL 2
REMARK VINA RESULT:      -4.0     37.494     38.855
REMARK  2 active torsions:
REMARK  status: ('A' for Active; 'I' for Inactive)
REMARK    1  A    between atoms: O_1  and  C_6 
REMARK    2  A    between atoms: C_2  and  C_3 
ROOT
HETATM    1  C   UNK N   1      48.545  16.706  14.428  0.00  0.00    -0.022 A 
HETATM    2  C   UNK N   1      49.876  16.637  13.913  0.00  0.00     0.072 A 
HETATM    3  C   UNK N   1      47.725  15.561  14.322  0.00  0.00     0.011 A 
HETATM    4  C   UNK N   1      49.505  14.322  13.244  0.00  0.00    -0.059 A 
HETATM    5  C   UNK N   1      50.334  15.444  13.339  0.00  0.00     0.043 A 
HETATM    6  C   UNK N   1      48.197  14.389  13.732  0.00  0.00     0.007 A 
HETATM    7  C   UNK N   1      50.024  13.060  12.619  0.00  0.00     0.048 C 
ENDROOT
BRANCH   1   8
HETATM    8  C   UNK N   1      47.972  17.959  15.095  0.00  0.00     0.013 C 
HETATM    9  C   UNK N   1      46.670  17.629  15.840  0.00  0.00     0.015 C 
HETATM   10  C   UNK N   1      47.744  19.075  14.067  0.00  0.00     0.015 C 
ENDBRANCH   1   8
BRANCH   2  11
HETATM   11  O   UNK N   1      50.738  17.679  13.945  0.00  0.00    -0.360 OA
HETATM   12  H   UNK N   1      50.862  18.284  14.684  0.00  0.00     0.217 HD
ENDBRANCH   2  11
TORSDOF 2
ENDMDL
MODEL 3
REMARK VINA RESULT:      -4.0     13.717     14.780
REMARK  2 active torsions:
REMARK  status: ('A' for Active; 'I' for Inactive)
REMARK    1  A    between atoms: O_1  and  C_6 
REMARK    2  A    between atoms: C_2  and  C_3 
ROOT
HETATM    1  C   UNK N   1      78.514  37.211   6.901  0.00  0.00    -0.022 A 
HETATM    2  C   UNK N   1      78.148  38.409   6.215  0.00  0.00     0.072 A 
HETATM    3  C   UNK N   1      78.494  35.994   6.182  0.00  0.00     0.011 A 
HETATM    4  C   UNK N   1      77.785  37.135   4.167  0.00  0.00    -0.059 A 
HETATM    5  C   UNK N   1      77.798  38.351   4.859  0.00  0.00     0.043 A 
HETATM    6  C   UNK N   1      78.128  35.958   4.837  0.00  0.00     0.007 A 
HETATM    7  C   UNK N   1      77.401  37.106   2.717  0.00  0.00     0.048 C 
ENDROOT
BRANCH   1   8
HETATM    8  C   UNK N   1      78.935  37.186   8.372  0.00  0.00     0.013 C 
HETATM    9  C   UNK N   1      80.166  36.289   8.569  0.00  0.00     0.015 C 
HETATM   10  C   UNK N   1      77.777  36.727   9.268  0.00  0.00     0.015 C 
ENDBRANCH   1   8
BRANCH   2  11
HETATM   11  O   UNK N   1      78.114  39.623   6.811  0.00  0.00    -0.360 OA
HETATM   12  H   UNK N   1      77.327  40.162   6.944  0.00  0.00     0.217 HD
ENDBRANCH   2  11
TORSDOF 2
ENDMDL
MODEL 4
REMARK VINA RESULT:      -3.9     37.547     38.840
REMARK  2 active torsions:
REMARK  status: ('A' for Active; 'I' for Inactive)
REMARK    1  A    between atoms: O_1  and  C_6 
REMARK    2  A    between atoms: C_2  and  C_3 
ROOT
HETATM    1  C   UNK N   1      49.019  16.134  13.975  0.00  0.00    -0.022 A 
HETATM    2  C   UNK N   1      48.060  15.088  14.142  0.00  0.00     0.072 A 
HETATM    3  C   UNK N   1      50.221  15.838  13.294  0.00  0.00     0.011 A 
HETATM    4  C   UNK N   1      49.522  13.545  12.949  0.00  0.00    -0.059 A 
HETATM    5  C   UNK N   1      48.325  13.816  13.619  0.00  0.00     0.043 A 
HETATM    6  C   UNK N   1      50.470  14.560  12.795  0.00  0.00     0.007 A 
HETATM    7  C   UNK N   1      49.779  12.171  12.403  0.00  0.00     0.048 C 
ENDROOT
BRANCH   1   8
HETATM    8  C   UNK N   1      48.800  17.558  14.490  0.00  0.00     0.013 C 
HETATM    9  C   UNK N   1      49.315  18.588  13.474  0.00  0.00     0.015 C 
HETATM   10  C   UNK N   1      49.469  17.758  15.856  0.00  0.00     0.015 C 
ENDBRANCH   1   8
BRANCH   2  11
HETATM   11  O   UNK N   1      46.886  15.256  14.794  0.00  0.00    -0.360 OA
HETATM   12  H   UNK N   1      46.645  14.849  15.632  0.00  0.00     0.217 HD
ENDBRANCH   2  11
TORSDOF 2
ENDMDL
MODEL 5
REMARK VINA RESULT:      -3.9      2.033      2.876
REMARK  2 active torsions:
REMARK  status: ('A' for Active; 'I' for Inactive)
REMARK    1  A    between atoms: O_1  and  C_6 
REMARK    2  A    between atoms: C_2  and  C_3 
ROOT
HETATM    1  C   UNK N   1      77.450  28.975  -5.607  0.00  0.00    -0.022 A 
HETATM    2  C   UNK N   1      76.932  29.613  -6.776  0.00  0.00     0.072 A 
HETATM    3  C   UNK N   1      78.007  29.785  -4.593  0.00  0.00     0.011 A 
HETATM    4  C   UNK N   1      77.531  31.793  -5.862  0.00  0.00    -0.059 A 
HETATM    5  C   UNK N   1      76.974  31.010  -6.878  0.00  0.00     0.043 A 
HETATM    6  C   UNK N   1      78.052  31.173  -4.723  0.00  0.00     0.007 A 
HETATM    7  C   UNK N   1      77.565  33.286  -6.004  0.00  0.00     0.048 C 
ENDROOT
BRANCH   1   8
HETATM    8  C   UNK N   1      77.420  27.459  -5.400  0.00  0.00     0.013 C 
HETATM    9  C   UNK N   1      77.352  27.117  -3.905  0.00  0.00     0.015 C 
HETATM   10  C   UNK N   1      78.635  26.790  -6.057  0.00  0.00     0.015 C 
ENDBRANCH   1   8
BRANCH   2  11
HETATM   11  O   UNK N   1      76.395  28.932  -7.815  0.00  0.00    -0.360 OA
HETATM   12  H   UNK N   1      76.811  28.202  -8.283  0.00  0.00     0.217 HD
ENDBRANCH   2  11
TORSDOF 2
ENDMDL
MODEL 6
REMARK VINA RESULT:      -3.9     12.024     14.520
REMARK  2 active torsions:
REMARK  status: ('A' for Active; 'I' for Inactive)
REMARK    1  A    between atoms: O_1  and  C_6 
REMARK    2  A    between atoms: C_2  and  C_3 
ROOT
HETATM    1  C   UNK N   1      80.654  27.791   5.520  0.00  0.00    -0.022 A 
HETATM    2  C   UNK N   1      80.283  26.978   6.634  0.00  0.00     0.072 A 
HETATM    3  C   UNK N   1      81.876  28.496   5.582  0.00  0.00     0.011 A 
HETATM    4  C   UNK N   1      82.345  27.594   7.780  0.00  0.00    -0.059 A 
HETATM    5  C   UNK N   1      81.139  26.887   7.740  0.00  0.00     0.043 A 
HETATM    6  C   UNK N   1      82.706  28.403   6.699  0.00  0.00     0.007 A 
HETATM    7  C   UNK N   1      83.238  27.479   8.981  0.00  0.00     0.048 C 
ENDROOT
BRANCH   1   8
HETATM    8  C   UNK N   1      79.793  27.927   4.262  0.00  0.00     0.013 C 
HETATM    9  C   UNK N   1      80.672  27.952   3.003  0.00  0.00     0.015 C 
HETATM   10  C   UNK N   1      78.907  29.178   4.333  0.00  0.00     0.015 C 
ENDBRANCH   1   8
BRANCH   2  11
HETATM   11  O   UNK N   1      79.127  26.277   6.688  0.00  0.00    -0.360 OA
HETATM   12  H   UNK N   1      78.517  26.255   7.432  0.00  0.00     0.217 HD
ENDBRANCH   2  11
TORSDOF 2
ENDMDL
MODEL 7
REMARK VINA RESULT:      -3.9     11.955     14.092
REMARK  2 active torsions:
REMARK  status: ('A' for Active; 'I' for Inactive)
REMARK    1  A    between atoms: O_1  and  C_6 
REMARK    2  A    between atoms: C_2  and  C_3 
ROOT
HETATM    1  C   UNK N   1      81.591  26.957   6.171  0.00  0.00    -0.022 A 
HETATM    2  C   UNK N   1      80.206  27.285   6.054  0.00  0.00     0.072 A 
HETATM    3  C   UNK N   1      82.532  27.776   5.507  0.00  0.00     0.011 A 
HETATM    4  C   UNK N   1      80.769  29.203   4.657  0.00  0.00    -0.059 A 
HETATM    5  C   UNK N   1      79.821  28.407   5.307  0.00  0.00     0.043 A 
HETATM    6  C   UNK N   1      82.124  28.878   4.756  0.00  0.00     0.007 A 
HETATM    7  C   UNK N   1      80.324  30.395   3.861  0.00  0.00     0.048 C 
ENDROOT
BRANCH   1   8
HETATM    8  C   UNK N   1      82.102  25.768   6.988  0.00  0.00     0.013 C 
HETATM    9  C   UNK N   1      82.264  26.155   8.465  0.00  0.00     0.015 C 
HETATM   10  C   UNK N   1      83.422  25.235   6.416  0.00  0.00     0.015 C 
ENDBRANCH   1   8
BRANCH   2  11
HETATM   11  O   UNK N   1      79.221  26.559   6.632  0.00  0.00    -0.360 OA
HETATM   12  H   UNK N   1      78.616  25.968   6.174  0.00  0.00     0.217 HD
ENDBRANCH   2  11
TORSDOF 2
ENDMDL
MODEL 8
REMARK VINA RESULT:      -3.8     10.902     13.085
REMARK  2 active torsions:
REMARK  status: ('A' for Active; 'I' for Inactive)
REMARK    1  A    between atoms: O_1  and  C_6 
REMARK    2  A    between atoms: C_2  and  C_3 
ROOT
HETATM    1  C   UNK N   1      81.167  27.140   5.155  0.00  0.00    -0.022 A 
HETATM    2  C   UNK N   1      80.488  28.210   5.814  0.00  0.00     0.072 A 
HETATM    3  C   UNK N   1      80.924  26.939   3.777  0.00  0.00     0.011 A 
HETATM    4  C   UNK N   1      79.395  28.816   3.720  0.00  0.00    -0.059 A 
HETATM    5  C   UNK N   1      79.621  29.034   5.083  0.00  0.00     0.043 A 
HETATM    6  C   UNK N   1      80.045  27.762   3.074  0.00  0.00     0.007 A 
HETATM    7  C   UNK N   1      78.457  29.713   2.966  0.00  0.00     0.048 C 
ENDROOT
BRANCH   1   8
HETATM    8  C   UNK N   1      82.150  26.210   5.869  0.00  0.00     0.013 C 
HETATM    9  C   UNK N   1      83.240  25.726   4.900  0.00  0.00     0.015 C 
HETATM   10  C   UNK N   1      81.419  25.020   6.505  0.00  0.00     0.015 C 
ENDBRANCH   1   8
BRANCH   2  11
HETATM   11  O   UNK N   1      80.632  28.479   7.132  0.00  0.00    -0.360 OA
HETATM   12  H   UNK N   1      80.502  27.853   7.851  0.00  0.00     0.217 HD
ENDBRANCH   2  11
TORSDOF 2
ENDMDL
MODEL 9
REMARK VINA RESULT:      -3.8      2.197      2.710
REMARK  2 active torsions:
REMARK  status: ('A' for Active; 'I' for Inactive)
REMARK    1  A    between atoms: O_1  and  C_6 
REMARK    2  A    between atoms: C_2  and  C_3 
ROOT
HETATM    1  C   UNK N   1      77.471  31.089  -5.260  0.00  0.00    -0.022 A 
HETATM    2  C   UNK N   1      76.990  32.388  -5.609  0.00  0.00     0.072 A 
HETATM    3  C   UNK N   1      78.659  30.994  -4.501  0.00  0.00     0.011 A 
HETATM    4  C   UNK N   1      78.866  33.407  -4.429  0.00  0.00    -0.059 A 
HETATM    5  C   UNK N   1      77.691  33.523  -5.179  0.00  0.00     0.043 A 
HETATM    6  C   UNK N   1      79.349  32.138  -4.098  0.00  0.00     0.007 A 
HETATM    7  C   UNK N   1      79.596  34.642  -3.988  0.00  0.00     0.048 C 
ENDROOT
BRANCH   1   8
HETATM    8  C   UNK N   1      76.755  29.797  -5.663  0.00  0.00     0.013 C 
HETATM    9  C   UNK N   1      77.198  28.630  -4.770  0.00  0.00     0.015 C 
HETATM   10  C   UNK N   1      76.997  29.473  -7.144  0.00  0.00     0.015 C 
ENDBRANCH   1   8
BRANCH   2  11
HETATM   11  O   UNK N   1      75.876  32.592  -6.348  0.00  0.00    -0.360 OA
HETATM   12  H   UNK N   1      75.145  33.174  -6.114  0.00  0.00     0.217 HD
ENDBRANCH   2  11
TORSDOF 2
ENDMDL
