MODEL 1
REMARK VINA RESULT:      -5.8      0.000      0.000
REMARK  6 active torsions:
REMARK  status: ('A' for Active; 'I' for Inactive)
REMARK    1  A    between atoms: O_2  and  C_7 
REMARK    2  A    between atoms: O_3  and  C_13 
REMARK    3  A    between atoms: O_4  and  C_18 
REMARK    4  A    between atoms: O_5  and  C_19 
REMARK    5  A    between atoms: O_6  and  C_21 
REMARK    6  A    between atoms: C_8  and  C_12 
ROOT
HETATM    1  O   UNK N   1      78.323  27.857  -4.835  0.00  0.00    -0.338 OA
HETATM    2  C   UNK N   1      78.939  27.326  -7.077  0.00  0.00     0.156 C 
HETATM    3  C   UNK N   1      78.962  28.370  -5.951  0.00  0.00     0.191 C 
HETATM    4  C   UNK N   1      79.683  26.067  -6.591  0.00  0.00     0.079 C 
HETATM    5  C   UNK N   1      79.282  25.683  -5.180  0.00  0.00     0.011 A 
HETATM    6  C   UNK N   1      78.593  26.614  -4.371  0.00  0.00     0.081 A 
HETATM    7  C   UNK N   1      79.613  24.421  -4.657  0.00  0.00     0.077 A 
HETATM    8  C   UNK N   1      78.204  26.269  -3.077  0.00  0.00     0.074 A 
HETATM    9  C   UNK N   1      79.226  24.089  -3.347  0.00  0.00     0.073 A 
HETATM   10  C   UNK N   1      78.520  25.006  -2.562  0.00  0.00     0.071 A 
ENDROOT
BRANCH   3  11
HETATM   11  C   UNK N   1      78.326  29.665  -6.375  0.00  0.00    -0.024 A 
HETATM   12  C   UNK N   1      77.365  30.260  -5.548  0.00  0.00     0.049 A 
HETATM   13  C   UNK N   1      76.769  31.473  -5.912  0.00  0.00     0.099 A 
HETATM   14  C   UNK N   1      77.134  32.098  -7.115  0.00  0.00     0.098 A 
HETATM   15  C   UNK N   1      78.097  31.505  -7.945  0.00  0.00     0.040 A 
HETATM   16  C   UNK N   1      78.693  30.297  -7.578  0.00  0.00     0.013 A 
BRANCH  13  17
HETATM   17  O   UNK N   1      75.849  32.042  -5.107  0.00  0.00    -0.358 OA
HETATM   18  H   UNK N   1      75.647  31.676  -4.233  0.00  0.00     0.218 HD
ENDBRANCH  13  17
BRANCH  14  19
HETATM   19  O   UNK N   1      76.559  33.265  -7.466  0.00  0.00    -0.358 OA
HETATM   20  H   UNK N   1      75.641  33.306  -7.770  0.00  0.00     0.218 HD
ENDBRANCH  14  19
ENDBRANCH   3  11
BRANCH   2  21
HETATM   21  O   UNK N   1      77.610  26.982  -7.383  0.00  0.00    -0.392 OA
HETATM   22  H   UNK N   1      77.480  27.164  -8.351  0.00  0.00     0.210 HD
ENDBRANCH   2  21
BRANCH   7  23
HETATM   23  O   UNK N   1      80.291  23.532  -5.411  0.00  0.00    -0.360 OA
HETATM   24  H   UNK N   1      81.256  23.547  -5.470  0.00  0.00     0.217 HD
ENDBRANCH   7  23
BRANCH  10  25
HETATM   25  O   UNK N   1      78.157  24.673  -1.307  0.00  0.00    -0.361 OA
HETATM   26  H   UNK N   1      77.527  25.207  -0.804  0.00  0.00     0.217 HD
ENDBRANCH  10  25
TORSDOF 6
ENDMDL
MODEL 2
REMARK VINA RESULT:      -5.7     36.186     38.357
REMARK  6 active torsions:
REMARK  status: ('A' for Active; 'I' for Inactive)
REMARK    1  A    between atoms: O_2  and  C_7 
REMARK    2  A    between atoms: O_3  and  C_13 
REMARK    3  A    between atoms: O_4  and  C_18 
REMARK    4  A    between atoms: O_5  and  C_19 
REMARK    5  A    between atoms: O_6  and  C_21 
REMARK    6  A    between atoms: C_8  and  C_12 
ROOT
HETATM    1  O   UNK N   1      48.111  14.700  14.635  0.00  0.00    -0.338 OA
HETATM    2  C   UNK N   1      49.994  15.631  13.506  0.00  0.00     0.156 C 
HETATM    3  C   UNK N   1      48.889  14.565  13.498  0.00  0.00     0.191 C 
HETATM    4  C   UNK N   1      49.331  17.022  13.512  0.00  0.00     0.079 C 
HETATM    5  C   UNK N   1      48.185  17.097  14.502  0.00  0.00     0.011 A 
HETATM    6  C   UNK N   1      47.641  15.906  15.033  0.00  0.00     0.081 A 
HETATM    7  C   UNK N   1      47.639  18.337  14.877  0.00  0.00     0.077 A 
HETATM    8  C   UNK N   1      46.598  15.961  15.958  0.00  0.00     0.074 A 
HETATM    9  C   UNK N   1      46.579  18.379  15.800  0.00  0.00     0.073 A 
HETATM   10  C   UNK N   1      46.065  17.197  16.342  0.00  0.00     0.071 A 
ENDROOT
BRANCH   3  11
HETATM   11  C   UNK N   1      49.454  13.174  13.408  0.00  0.00    -0.024 A 
HETATM   12  C   UNK N   1      50.411  12.885  12.426  0.00  0.00     0.049 A 
HETATM   13  C   UNK N   1      50.964  11.604  12.331  0.00  0.00     0.099 A 
HETATM   14  C   UNK N   1      50.557  10.598  13.221  0.00  0.00     0.098 A 
HETATM   15  C   UNK N   1      49.599  10.884  14.205  0.00  0.00     0.040 A 
HETATM   16  C   UNK N   1      49.052  12.165  14.302  0.00  0.00     0.013 A 
BRANCH  13  17
HETATM   17  O   UNK N   1      51.889  11.336  11.387  0.00  0.00    -0.358 OA
HETATM   18  H   UNK N   1      51.653  10.885  10.562  0.00  0.00     0.218 HD
ENDBRANCH  13  17
BRANCH  14  19
HETATM   19  O   UNK N   1      51.089   9.363  13.128  0.00  0.00    -0.358 OA
HETATM   20  H   UNK N   1      51.246   8.819  13.913  0.00  0.00     0.218 HD
ENDBRANCH  14  19
ENDBRANCH   3  11
BRANCH   2  21
HETATM   21  O   UNK N   1      50.783  15.495  14.663  0.00  0.00    -0.392 OA
HETATM   22  H   UNK N   1      51.368  16.296  14.709  0.00  0.00     0.210 HD
ENDBRANCH   2  21
BRANCH   7  23
HETATM   23  O   UNK N   1      48.134  19.479  14.360  0.00  0.00    -0.360 OA
HETATM   24  H   UNK N   1      47.740  20.340  14.558  0.00  0.00     0.217 HD
ENDBRANCH   7  23
BRANCH  10  25
HETATM   25  O   UNK N   1      45.047  17.254  17.226  0.00  0.00    -0.361 OA
HETATM   26  H   UNK N   1      45.207  17.275  18.180  0.00  0.00     0.217 HD
ENDBRANCH  10  25
TORSDOF 6
ENDMDL
MODEL 3
REMARK VINA RESULT:      -5.6      1.399      6.614
REMARK  6 active torsions:
REMARK  status: ('A' for Active; 'I' for Inactive)
REMARK    1  A    between atoms: O_2  and  C_7 
REMARK    2  A    between atoms: O_3  and  C_13 
REMARK    3  A    between atoms: O_4  and  C_18 
REMARK    4  A    between atoms: O_5  and  C_19 
REMARK    5  A    between atoms: O_6  and  C_21 
REMARK    6  A    between atoms: C_8  and  C_12 
ROOT
HETATM    1  O   UNK N   1      77.786  28.418  -4.897  0.00  0.00    -0.338 OA
HETATM    2  C   UNK N   1      79.241  27.450  -6.519  0.00  0.00     0.156 C 
HETATM    3  C   UNK N   1      78.108  27.219  -5.510  0.00  0.00     0.191 C 
HETATM    4  C   UNK N   1      78.752  28.454  -7.581  0.00  0.00     0.079 C 
HETATM    5  C   UNK N   1      78.030  29.632  -6.955  0.00  0.00     0.011 A 
HETATM    6  C   UNK N   1      77.595  29.551  -5.613  0.00  0.00     0.081 A 
HETATM    7  C   UNK N   1      77.763  30.792  -7.701  0.00  0.00     0.077 A 
HETATM    8  C   UNK N   1      76.945  30.633  -5.018  0.00  0.00     0.074 A 
HETATM    9  C   UNK N   1      77.096  31.871  -7.096  0.00  0.00     0.073 A 
HETATM   10  C   UNK N   1      76.693  31.794  -5.759  0.00  0.00     0.071 A 
ENDROOT
BRANCH   3  11
HETATM   11  C   UNK N   1      78.476  26.183  -4.483  0.00  0.00    -0.024 A 
HETATM   12  C   UNK N   1      78.263  26.457  -3.126  0.00  0.00     0.049 A 
HETATM   13  C   UNK N   1      78.582  25.505  -2.151  0.00  0.00     0.099 A 
HETATM   14  C   UNK N   1      79.122  24.268  -2.534  0.00  0.00     0.098 A 
HETATM   15  C   UNK N   1      79.336  23.990  -3.892  0.00  0.00     0.040 A 
HETATM   16  C   UNK N   1      79.013  24.939  -4.863  0.00  0.00     0.013 A 
BRANCH  13  17
HETATM   17  O   UNK N   1      78.367  25.774  -0.848  0.00  0.00    -0.358 OA
HETATM   18  H   UNK N   1      79.102  25.844  -0.219  0.00  0.00     0.218 HD
ENDBRANCH  13  17
BRANCH  14  19
HETATM   19  O   UNK N   1      79.430  23.351  -1.595  0.00  0.00    -0.358 OA
HETATM   20  H   UNK N   1      79.725  22.461  -1.835  0.00  0.00     0.218 HD
ENDBRANCH  14  19
ENDBRANCH   3  11
BRANCH   2  21
HETATM   21  O   UNK N   1      80.364  27.988  -5.864  0.00  0.00    -0.392 OA
HETATM   22  H   UNK N   1      80.023  28.615  -5.174  0.00  0.00     0.210 HD
ENDBRANCH   2  21
BRANCH   7  23
HETATM   23  O   UNK N   1      78.153  30.872  -8.990  0.00  0.00    -0.360 OA
HETATM   24  H   UNK N   1      78.652  30.161  -9.416  0.00  0.00     0.217 HD
ENDBRANCH   7  23
BRANCH  10  25
HETATM   25  O   UNK N   1      76.052  32.837  -5.192  0.00  0.00    -0.361 OA
HETATM   26  H   UNK N   1      75.443  33.392  -5.699  0.00  0.00     0.217 HD
ENDBRANCH  10  25
TORSDOF 6
ENDMDL
MODEL 4
REMARK VINA RESULT:      -5.3      2.407      7.539
REMARK  6 active torsions:
REMARK  status: ('A' for Active; 'I' for Inactive)
REMARK    1  A    between atoms: O_2  and  C_7 
REMARK    2  A    between atoms: O_3  and  C_13 
REMARK    3  A    between atoms: O_4  and  C_18 
REMARK    4  A    between atoms: O_5  and  C_19 
REMARK    5  A    between atoms: O_6  and  C_21 
REMARK    6  A    between atoms: C_8  and  C_12 
ROOT
HETATM    1  O   UNK N   1      79.281  30.738  -7.580  0.00  0.00    -0.338 OA
HETATM    2  C   UNK N   1      77.051  30.970  -6.766  0.00  0.00     0.156 C 
HETATM    3  C   UNK N   1      78.473  30.461  -6.490  0.00  0.00     0.191 C 
HETATM    4  C   UNK N   1      77.111  32.494  -6.985  0.00  0.00     0.079 C 
HETATM    5  C   UNK N   1      78.258  32.888  -7.896  0.00  0.00     0.011 A 
HETATM    6  C   UNK N   1      79.290  31.961  -8.162  0.00  0.00     0.081 A 
HETATM    7  C   UNK N   1      78.321  34.175  -8.457  0.00  0.00     0.077 A 
HETATM    8  C   UNK N   1      80.342  32.304  -9.011  0.00  0.00     0.074 A 
HETATM    9  C   UNK N   1      79.393  34.514  -9.301  0.00  0.00     0.073 A 
HETATM   10  C   UNK N   1      80.396  33.582  -9.581  0.00  0.00     0.071 A 
ENDROOT
BRANCH   3  11
HETATM   11  C   UNK N   1      78.491  28.989  -6.181  0.00  0.00    -0.024 A 
HETATM   12  C   UNK N   1      77.569  28.470  -5.263  0.00  0.00     0.049 A 
HETATM   13  C   UNK N   1      77.553  27.102  -4.970  0.00  0.00     0.099 A 
HETATM   14  C   UNK N   1      78.468  26.243  -5.597  0.00  0.00     0.098 A 
HETATM   15  C   UNK N   1      79.392  26.759  -6.517  0.00  0.00     0.040 A 
HETATM   16  C   UNK N   1      79.403  28.123  -6.812  0.00  0.00     0.013 A 
BRANCH  13  17
HETATM   17  O   UNK N   1      76.659  26.610  -4.089  0.00  0.00    -0.358 OA
HETATM   18  H   UNK N   1      76.704  25.692  -3.782  0.00  0.00     0.218 HD
ENDBRANCH  13  17
BRANCH  14  19
HETATM   19  O   UNK N   1      78.454  24.925  -5.313  0.00  0.00    -0.358 OA
HETATM   20  H   UNK N   1      79.079  24.536  -4.684  0.00  0.00     0.218 HD
ENDBRANCH  14  19
ENDBRANCH   3  11
BRANCH   2  21
HETATM   21  O   UNK N   1      76.541  30.360  -7.927  0.00  0.00    -0.392 OA
HETATM   22  H   UNK N   1      77.266  30.378  -8.605  0.00  0.00     0.210 HD
ENDBRANCH   2  21
BRANCH   7  23
HETATM   23  O   UNK N   1      77.353  35.077  -8.193  0.00  0.00    -0.360 OA
HETATM   24  H   UNK N   1      76.439  34.808  -8.027  0.00  0.00     0.217 HD
ENDBRANCH   7  23
BRANCH  10  25
HETATM   25  O   UNK N   1      81.419  33.923 -10.392  0.00  0.00    -0.361 OA
HETATM   26  H   UNK N   1      82.338  33.738 -10.152  0.00  0.00     0.217 HD
ENDBRANCH  10  25
TORSDOF 6
ENDMDL
MODEL 5
REMARK VINA RESULT:      -5.3      9.307     12.451
REMARK  6 active torsions:
REMARK  status: ('A' for Active; 'I' for Inactive)
REMARK    1  A    between atoms: O_2  and  C_7 
REMARK    2  A    between atoms: O_3  and  C_13 
REMARK    3  A    between atoms: O_4  and  C_18 
REMARK    4  A    between atoms: O_5  and  C_19 
REMARK    5  A    between atoms: O_6  and  C_21 
REMARK    6  A    between atoms: C_8  and  C_12 
ROOT
HETATM    1  O   UNK N   1      76.333  37.450   0.444  0.00  0.00    -0.338 OA
HETATM    2  C   UNK N   1      78.268  36.074   0.675  0.00  0.00     0.156 C 
HETATM    3  C   UNK N   1      77.000  36.631   1.339  0.00  0.00     0.191 C 
HETATM    4  C   UNK N   1      77.851  35.251  -0.560  0.00  0.00     0.079 C 
HETATM    5  C   UNK N   1      76.802  35.968  -1.388  0.00  0.00     0.011 A 
HETATM    6  C   UNK N   1      76.101  37.062  -0.833  0.00  0.00     0.081 A 
HETATM    7  C   UNK N   1      76.499  35.540  -2.692  0.00  0.00     0.077 A 
HETATM    8  C   UNK N   1      75.146  37.742  -1.589  0.00  0.00     0.074 A 
HETATM    9  C   UNK N   1      75.526  36.224  -3.440  0.00  0.00     0.073 A 
HETATM   10  C   UNK N   1      74.856  37.323  -2.893  0.00  0.00     0.071 A 
ENDROOT
BRANCH   3  11
HETATM   11  C   UNK N   1      77.315  37.380   2.605  0.00  0.00    -0.024 A 
HETATM   12  C   UNK N   1      77.091  38.762   2.658  0.00  0.00     0.049 A 
HETATM   13  C   UNK N   1      77.360  39.480   3.828  0.00  0.00     0.099 A 
HETATM   14  C   UNK N   1      77.861  38.813   4.957  0.00  0.00     0.098 A 
HETATM   15  C   UNK N   1      78.086  37.430   4.908  0.00  0.00     0.040 A 
HETATM   16  C   UNK N   1      77.812  36.714   3.741  0.00  0.00     0.013 A 
BRANCH  13  17
HETATM   17  O   UNK N   1      77.136  40.809   3.873  0.00  0.00    -0.358 OA
HETATM   18  H   UNK N   1      76.237  41.169   3.896  0.00  0.00     0.218 HD
ENDBRANCH  13  17
BRANCH  14  19
HETATM   19  O   UNK N   1      78.122  39.505   6.084  0.00  0.00    -0.358 OA
HETATM   20  H   UNK N   1      78.223  39.061   6.939  0.00  0.00     0.218 HD
ENDBRANCH  14  19
ENDBRANCH   3  11
BRANCH   2  21
HETATM   21  O   UNK N   1      79.097  37.132   0.261  0.00  0.00    -0.392 OA
HETATM   22  H   UNK N   1      80.034  36.846   0.424  0.00  0.00     0.210 HD
ENDBRANCH   2  21
BRANCH   7  23
HETATM   23  O   UNK N   1      77.145  34.482  -3.224  0.00  0.00    -0.360 OA
HETATM   24  H   UNK N   1      77.118  33.609  -2.810  0.00  0.00     0.217 HD
ENDBRANCH   7  23
BRANCH  10  25
HETATM   25  O   UNK N   1      73.923  37.969  -3.623  0.00  0.00    -0.361 OA
HETATM   26  H   UNK N   1      73.948  38.929  -3.740  0.00  0.00     0.217 HD
ENDBRANCH  10  25
TORSDOF 6
ENDMDL
MODEL 6
REMARK VINA RESULT:      -5.3     35.709     38.142
REMARK  6 active torsions:
REMARK  status: ('A' for Active; 'I' for Inactive)
REMARK    1  A    between atoms: O_2  and  C_7 
REMARK    2  A    between atoms: O_3  and  C_13 
REMARK    3  A    between atoms: O_4  and  C_18 
REMARK    4  A    between atoms: O_5  and  C_19 
REMARK    5  A    between atoms: O_6  and  C_21 
REMARK    6  A    between atoms: C_8  and  C_12 
ROOT
HETATM    1  O   UNK N   1      48.253  14.427  14.520  0.00  0.00    -0.338 OA
HETATM    2  C   UNK N   1      49.694  16.158  13.733  0.00  0.00     0.156 C 
HETATM    3  C   UNK N   1      48.980  15.528  14.939  0.00  0.00     0.191 C 
HETATM    4  C   UNK N   1      50.650  15.110  13.130  0.00  0.00     0.079 C 
HETATM    5  C   UNK N   1      49.992  13.749  13.008  0.00  0.00     0.011 A 
HETATM    6  C   UNK N   1      48.795  13.486  13.711  0.00  0.00     0.081 A 
HETATM    7  C   UNK N   1      50.573  12.737  12.226  0.00  0.00     0.077 A 
HETATM    8  C   UNK N   1      48.169  12.245  13.594  0.00  0.00     0.074 A 
HETATM    9  C   UNK N   1      49.941  11.485  12.127  0.00  0.00     0.073 A 
HETATM   10  C   UNK N   1      48.742  11.242  12.804  0.00  0.00     0.071 A 
ENDROOT
BRANCH   3  11
HETATM   11  C   UNK N   1      48.087  16.516  15.638  0.00  0.00    -0.024 A 
HETATM   12  C   UNK N   1      48.620  17.739  16.065  0.00  0.00     0.049 A 
HETATM   13  C   UNK N   1      47.808  18.682  16.704  0.00  0.00     0.099 A 
HETATM   14  C   UNK N   1      46.450  18.401  16.922  0.00  0.00     0.098 A 
HETATM   15  C   UNK N   1      45.914  17.178  16.496  0.00  0.00     0.040 A 
HETATM   16  C   UNK N   1      46.725  16.240  15.854  0.00  0.00     0.013 A 
BRANCH  13  17
HETATM   17  O   UNK N   1      48.327  19.859  17.107  0.00  0.00    -0.358 OA
HETATM   18  H   UNK N   1      49.243  19.928  17.418  0.00  0.00     0.218 HD
ENDBRANCH  13  17
BRANCH  14  19
HETATM   19  O   UNK N   1      45.668  19.310  17.540  0.00  0.00    -0.358 OA
HETATM   20  H   UNK N   1      45.143  19.950  17.037  0.00  0.00     0.218 HD
ENDBRANCH  14  19
ENDBRANCH   3  11
BRANCH   2  21
HETATM   21  O   UNK N   1      48.750  16.531  12.759  0.00  0.00    -0.392 OA
HETATM   22  H   UNK N   1      48.132  15.761  12.646  0.00  0.00     0.210 HD
ENDBRANCH   2  21
BRANCH   7  23
HETATM   23  O   UNK N   1      51.728  12.968  11.569  0.00  0.00    -0.360 OA
HETATM   24  H   UNK N   1      52.520  12.434  11.728  0.00  0.00     0.217 HD
ENDBRANCH   7  23
BRANCH  10  25
HETATM   25  O   UNK N   1      48.148  10.035  12.699  0.00  0.00    -0.361 OA
HETATM   26  H   UNK N   1      47.197   9.926  12.837  0.00  0.00     0.217 HD
ENDBRANCH  10  25
TORSDOF 6
ENDMDL
MODEL 7
REMARK VINA RESULT:      -5.2      1.625      3.111
REMARK  6 active torsions:
REMARK  status: ('A' for Active; 'I' for Inactive)
REMARK    1  A    between atoms: O_2  and  C_7 
REMARK    2  A    between atoms: O_3  and  C_13 
REMARK    3  A    between atoms: O_4  and  C_18 
REMARK    4  A    between atoms: O_5  and  C_19 
REMARK    5  A    between atoms: O_6  and  C_21 
REMARK    6  A    between atoms: C_8  and  C_12 
ROOT
HETATM    1  O   UNK N   1      77.983  27.848  -7.458  0.00  0.00    -0.338 OA
HETATM    2  C   UNK N   1      78.341  28.263  -5.137  0.00  0.00     0.156 C 
HETATM    3  C   UNK N   1      77.478  28.547  -6.375  0.00  0.00     0.191 C 
HETATM    4  C   UNK N   1      78.290  26.751  -4.842  0.00  0.00     0.079 C 
HETATM    5  C   UNK N   1      78.459  25.924  -6.102  0.00  0.00     0.011 A 
HETATM    6  C   UNK N   1      78.310  26.538  -7.366  0.00  0.00     0.081 A 
HETATM    7  C   UNK N   1      78.733  24.548  -6.028  0.00  0.00     0.077 A 
HETATM    8  C   UNK N   1      78.479  25.793  -8.533  0.00  0.00     0.074 A 
HETATM    9  C   UNK N   1      78.888  23.804  -7.211  0.00  0.00     0.073 A 
HETATM   10  C   UNK N   1      78.767  24.425  -8.458  0.00  0.00     0.071 A 
ENDROOT
BRANCH   3  11
HETATM   11  C   UNK N   1      77.407  30.018  -6.682  0.00  0.00    -0.024 A 
HETATM   12  C   UNK N   1      76.783  30.879  -5.770  0.00  0.00     0.049 A 
HETATM   13  C   UNK N   1      76.718  32.253  -6.023  0.00  0.00     0.099 A 
HETATM   14  C   UNK N   1      77.278  32.774  -7.200  0.00  0.00     0.098 A 
HETATM   15  C   UNK N   1      77.904  31.915  -8.114  0.00  0.00     0.040 A 
HETATM   16  C   UNK N   1      77.972  30.545  -7.858  0.00  0.00     0.013 A 
BRANCH  13  17
HETATM   17  O   UNK N   1      76.120  33.076  -5.138  0.00  0.00    -0.358 OA
HETATM   18  H   UNK N   1      75.302  33.546  -5.358  0.00  0.00     0.218 HD
ENDBRANCH  13  17
BRANCH  14  19
HETATM   19  O   UNK N   1      77.213  34.099  -7.445  0.00  0.00    -0.358 OA
HETATM   20  H   UNK N   1      77.494  34.470  -8.293  0.00  0.00     0.218 HD
ENDBRANCH  14  19
ENDBRANCH   3  11
BRANCH   2  21
HETATM   21  O   UNK N   1      79.675  28.635  -5.387  0.00  0.00    -0.392 OA
HETATM   22  H   UNK N   1      79.647  29.405  -6.013  0.00  0.00     0.210 HD
ENDBRANCH   2  21
BRANCH   7  23
HETATM   23  O   UNK N   1      78.854  23.945  -4.827  0.00  0.00    -0.360 OA
HETATM   24  H   UNK N   1      78.209  24.089  -4.119  0.00  0.00     0.217 HD
ENDBRANCH   7  23
BRANCH  10  25
HETATM   25  O   UNK N   1      78.918  23.698  -9.584  0.00  0.00    -0.361 OA
HETATM   26  H   UNK N   1      78.686  22.759  -9.614  0.00  0.00     0.217 HD
ENDBRANCH  10  25
TORSDOF 6
ENDMDL
MODEL 8
REMARK VINA RESULT:      -5.2     35.569     38.361
REMARK  6 active torsions:
REMARK  status: ('A' for Active; 'I' for Inactive)
REMARK    1  A    between atoms: O_2  and  C_7 
REMARK    2  A    between atoms: O_3  and  C_13 
REMARK    3  A    between atoms: O_4  and  C_18 
REMARK    4  A    between atoms: O_5  and  C_19 
REMARK    5  A    between atoms: O_6  and  C_21 
REMARK    6  A    between atoms: C_8  and  C_12 
ROOT
HETATM    1  O   UNK N   1      48.859  15.677  13.948  0.00  0.00    -0.338 OA
HETATM    2  C   UNK N   1      47.352  13.853  14.250  0.00  0.00     0.156 C 
HETATM    3  C   UNK N   1      48.805  14.345  14.323  0.00  0.00     0.191 C 
HETATM    4  C   UNK N   1      46.501  14.696  15.221  0.00  0.00     0.079 C 
HETATM    5  C   UNK N   1      46.817  16.175  15.111  0.00  0.00     0.011 A 
HETATM    6  C   UNK N   1      47.995  16.591  14.450  0.00  0.00     0.081 A 
HETATM    7  C   UNK N   1      45.967  17.136  15.683  0.00  0.00     0.077 A 
HETATM    8  C   UNK N   1      48.290  17.948  14.326  0.00  0.00     0.074 A 
HETATM    9  C   UNK N   1      46.282  18.501  15.564  0.00  0.00     0.073 A 
HETATM   10  C   UNK N   1      47.435  18.906  14.884  0.00  0.00     0.071 A 
ENDROOT
BRANCH   3  11
HETATM   11  C   UNK N   1      49.720  13.517  13.464  0.00  0.00    -0.024 A 
HETATM   12  C   UNK N   1      49.662  12.120  13.549  0.00  0.00     0.049 A 
HETATM   13  C   UNK N   1      50.491  11.325  12.750  0.00  0.00     0.099 A 
HETATM   14  C   UNK N   1      51.390  11.930  11.858  0.00  0.00     0.098 A 
HETATM   15  C   UNK N   1      51.450  13.329  11.770  0.00  0.00     0.040 A 
HETATM   16  C   UNK N   1      50.619  14.120  12.565  0.00  0.00     0.013 A 
BRANCH  13  17
HETATM   17  O   UNK N   1      50.424   9.981  12.833  0.00  0.00    -0.358 OA
HETATM   18  H   UNK N   1      50.565   9.419  12.056  0.00  0.00     0.218 HD
ENDBRANCH  13  17
BRANCH  14  19
HETATM   19  O   UNK N   1      52.189  11.165  11.089  0.00  0.00    -0.358 OA
HETATM   20  H   UNK N   1      53.153  11.255  11.114  0.00  0.00     0.218 HD
ENDBRANCH  14  19
ENDBRANCH   3  11
BRANCH   2  21
HETATM   21  O   UNK N   1      46.855  14.020  12.944  0.00  0.00    -0.392 OA
HETATM   22  H   UNK N   1      46.403  14.903  12.918  0.00  0.00     0.210 HD
ENDBRANCH   2  21
BRANCH   7  23
HETATM   23  O   UNK N   1      44.852  16.751  16.336  0.00  0.00    -0.360 OA
HETATM   24  H   UNK N   1      44.891  16.350  17.216  0.00  0.00     0.217 HD
ENDBRANCH   7  23
BRANCH  10  25
HETATM   25  O   UNK N   1      47.723  20.220  14.779  0.00  0.00    -0.361 OA
HETATM   26  H   UNK N   1      47.960  20.619  13.930  0.00  0.00     0.217 HD
ENDBRANCH  10  25
TORSDOF 6
ENDMDL
MODEL 9
REMARK VINA RESULT:      -5.2      2.977      5.069
REMARK  6 active torsions:
REMARK  status: ('A' for Active; 'I' for Inactive)
REMARK    1  A    between atoms: O_2  and  C_7 
REMARK    2  A    between atoms: O_3  and  C_13 
REMARK    3  A    between atoms: O_4  and  C_18 
REMARK    4  A    between atoms: O_5  and  C_19 
REMARK    5  A    between atoms: O_6  and  C_21 
REMARK    6  A    between atoms: C_8  and  C_12 
ROOT
HETATM    1  O   UNK N   1      77.461  31.707  -5.145  0.00  0.00    -0.338 OA
HETATM    2  C   UNK N   1      77.804  32.781  -7.246  0.00  0.00     0.156 C 
HETATM    3  C   UNK N   1      78.120  32.767  -5.744  0.00  0.00     0.191 C 
HETATM    4  C   UNK N   1      78.297  31.456  -7.861  0.00  0.00     0.079 C 
HETATM    5  C   UNK N   1      77.917  30.261  -7.008  0.00  0.00     0.011 A 
HETATM    6  C   UNK N   1      77.493  30.461  -5.675  0.00  0.00     0.081 A 
HETATM    7  C   UNK N   1      78.007  28.955  -7.518  0.00  0.00     0.077 A 
HETATM    8  C   UNK N   1      77.124  29.373  -4.884  0.00  0.00     0.074 A 
HETATM    9  C   UNK N   1      77.645  27.865  -6.708  0.00  0.00     0.073 A 
HETATM   10  C   UNK N   1      77.201  28.074  -5.398  0.00  0.00     0.071 A 
ENDROOT
BRANCH   3  11
HETATM   11  C   UNK N   1      77.745  34.064  -5.081  0.00  0.00    -0.024 A 
HETATM   12  C   UNK N   1      76.670  34.089  -4.183  0.00  0.00     0.049 A 
HETATM   13  C   UNK N   1      76.310  35.279  -3.541  0.00  0.00     0.099 A 
HETATM   14  C   UNK N   1      77.028  36.457  -3.800  0.00  0.00     0.098 A 
HETATM   15  C   UNK N   1      78.104  36.435  -4.699  0.00  0.00     0.040 A 
HETATM   16  C   UNK N   1      78.465  35.246  -5.335  0.00  0.00     0.013 A 
BRANCH  13  17
HETATM   17  O   UNK N   1      75.279  35.294  -2.673  0.00  0.00    -0.358 OA
HETATM   18  H   UNK N   1      74.360  35.330  -2.980  0.00  0.00     0.218 HD
ENDBRANCH  13  17
BRANCH  14  19
HETATM   19  O   UNK N   1      76.680  37.604  -3.182  0.00  0.00    -0.358 OA
HETATM   20  H   UNK N   1      77.150  38.433  -3.353  0.00  0.00     0.218 HD
ENDBRANCH  14  19
ENDBRANCH   3  11
BRANCH   2  21
HETATM   21  O   UNK N   1      76.415  32.888  -7.444  0.00  0.00    -0.392 OA
HETATM   22  H   UNK N   1      76.010  33.065  -6.554  0.00  0.00     0.210 HD
ENDBRANCH   2  21
BRANCH   7  23
HETATM   23  O   UNK N   1      78.432  28.750  -8.782  0.00  0.00    -0.360 OA
HETATM   24  H   UNK N   1      79.284  29.088  -9.093  0.00  0.00     0.217 HD
ENDBRANCH   7  23
BRANCH  10  25
HETATM   25  O   UNK N   1      76.858  27.017  -4.633  0.00  0.00    -0.361 OA
HETATM   26  H   UNK N   1      75.972  26.630  -4.673  0.00  0.00     0.217 HD
ENDBRANCH  10  25
TORSDOF 6
ENDMDL
