MODEL 1
REMARK VINA RESULT:      -5.7      0.000      0.000
REMARK  7 active torsions:
REMARK  status: ('A' for Active; 'I' for Inactive)
REMARK    1  A    between atoms: O_2  and  C_8 
REMARK    2  A    between atoms: O_3  and  C_14 
REMARK    3  A    between atoms: O_4  and  C_19 
REMARK    4  A    between atoms: O_5  and  C_20 
REMARK    5  A    between atoms: O_6  and  C_21 
REMARK    6  A    between atoms: O_7  and  C_22 
REMARK    7  A    between atoms: C_9  and  C_12 
ROOT
HETATM    1  O   UNK N   1      78.357  27.849  -4.808  0.00  0.00    -0.338 OA
HETATM    2  C   UNK N   1      78.960  27.300  -7.048  0.00  0.00     0.156 C 
HETATM    3  C   UNK N   1      79.003  28.349  -5.926  0.00  0.00     0.191 C 
HETATM    4  C   UNK N   1      79.690  26.035  -6.559  0.00  0.00     0.079 C 
HETATM    5  C   UNK N   1      79.285  25.660  -5.147  0.00  0.00     0.011 A 
HETATM    6  C   UNK N   1      78.608  26.604  -4.340  0.00  0.00     0.081 A 
HETATM    7  C   UNK N   1      79.599  24.397  -4.617  0.00  0.00     0.077 A 
HETATM    8  C   UNK N   1      78.214  26.266  -3.046  0.00  0.00     0.074 A 
HETATM    9  C   UNK N   1      79.210  24.074  -3.308  0.00  0.00     0.073 A 
HETATM   10  C   UNK N   1      78.514  25.002  -2.526  0.00  0.00     0.071 A 
ENDROOT
BRANCH   3  11
HETATM   11  C   UNK N   1      78.379  29.647  -6.354  0.00  0.00    -0.021 A 
HETATM   12  C   UNK N   1      77.379  30.224  -5.564  0.00  0.00     0.049 A 
HETATM   13  C   UNK N   1      76.797  31.440  -5.934  0.00  0.00     0.102 A 
HETATM   14  C   UNK N   1      77.213  32.091  -7.108  0.00  0.00     0.132 A 
HETATM   15  C   UNK N   1      78.221  31.513  -7.906  0.00  0.00     0.102 A 
HETATM   16  C   UNK N   1      78.800  30.298  -7.525  0.00  0.00     0.049 A 
BRANCH  13  17
HETATM   17  O   UNK N   1      75.836  31.993  -5.164  0.00  0.00    -0.358 OA
HETATM   18  H   UNK N   1      74.948  32.161  -5.510  0.00  0.00     0.218 HD
ENDBRANCH  13  17
BRANCH  14  19
HETATM   19  O   UNK N   1      76.642  33.262  -7.455  0.00  0.00    -0.356 OA
HETATM   20  H   UNK N   1      77.165  34.025  -7.741  0.00  0.00     0.218 HD
ENDBRANCH  14  19
BRANCH  15  21
HETATM   21  O   UNK N   1      78.628  32.131  -9.036  0.00  0.00    -0.358 OA
HETATM   22  H   UNK N   1      78.116  32.076  -9.856  0.00  0.00     0.218 HD
ENDBRANCH  15  21
ENDBRANCH   3  11
BRANCH   2  23
HETATM   23  O   UNK N   1      77.625  26.972  -7.349  0.00  0.00    -0.392 OA
HETATM   24  H   UNK N   1      77.092  27.148  -6.530  0.00  0.00     0.210 HD
ENDBRANCH   2  23
BRANCH   7  25
HETATM   25  O   UNK N   1      80.267  23.497  -5.369  0.00  0.00    -0.360 OA
HETATM   26  H   UNK N   1      79.808  22.789  -5.843  0.00  0.00     0.217 HD
ENDBRANCH   7  25
BRANCH  10  27
HETATM   27  O   UNK N   1      78.146  24.676  -1.270  0.00  0.00    -0.361 OA
HETATM   28  H   UNK N   1      77.871  23.776  -1.041  0.00  0.00     0.217 HD
ENDBRANCH  10  27
TORSDOF 7
ENDMDL
MODEL 2
REMARK VINA RESULT:      -5.6     36.349     38.638
REMARK  7 active torsions:
REMARK  status: ('A' for Active; 'I' for Inactive)
REMARK    1  A    between atoms: O_2  and  C_8 
REMARK    2  A    between atoms: O_3  and  C_14 
REMARK    3  A    between atoms: O_4  and  C_19 
REMARK    4  A    between atoms: O_5  and  C_20 
REMARK    5  A    between atoms: O_6  and  C_21 
REMARK    6  A    between atoms: O_7  and  C_22 
REMARK    7  A    between atoms: C_9  and  C_12 
ROOT
HETATM    1  O   UNK N   1      48.105  14.701  14.626  0.00  0.00    -0.338 OA
HETATM    2  C   UNK N   1      49.993  15.631  13.506  0.00  0.00     0.156 C 
HETATM    3  C   UNK N   1      48.883  14.569  13.489  0.00  0.00     0.191 C 
HETATM    4  C   UNK N   1      49.333  17.023  13.516  0.00  0.00     0.079 C 
HETATM    5  C   UNK N   1      48.186  17.098  14.505  0.00  0.00     0.011 A 
HETATM    6  C   UNK N   1      47.638  15.905  15.031  0.00  0.00     0.081 A 
HETATM    7  C   UNK N   1      47.641  18.336  14.885  0.00  0.00     0.077 A 
HETATM    8  C   UNK N   1      46.596  15.960  15.957  0.00  0.00     0.074 A 
HETATM    9  C   UNK N   1      46.582  18.378  15.806  0.00  0.00     0.073 A 
HETATM   10  C   UNK N   1      46.065  17.195  16.346  0.00  0.00     0.071 A 
ENDROOT
BRANCH   3  11
HETATM   11  C   UNK N   1      49.446  13.178  13.398  0.00  0.00    -0.021 A 
HETATM   12  C   UNK N   1      50.410  12.888  12.426  0.00  0.00     0.049 A 
HETATM   13  C   UNK N   1      50.961  11.606  12.334  0.00  0.00     0.102 A 
HETATM   14  C   UNK N   1      50.544  10.597  13.219  0.00  0.00     0.132 A 
HETATM   15  C   UNK N   1      49.574  10.886  14.199  0.00  0.00     0.102 A 
HETATM   16  C   UNK N   1      49.033  12.173  14.286  0.00  0.00     0.049 A 
BRANCH  13  17
HETATM   17  O   UNK N   1      51.895  11.336  11.398  0.00  0.00    -0.358 OA
HETATM   18  H   UNK N   1      52.542  10.626  11.523  0.00  0.00     0.218 HD
ENDBRANCH  13  17
BRANCH  14  19
HETATM   19  O   UNK N   1      51.081   9.364  13.118  0.00  0.00    -0.356 OA
HETATM   20  H   UNK N   1      51.040   8.850  12.298  0.00  0.00     0.218 HD
ENDBRANCH  14  19
BRANCH  15  21
HETATM   21  O   UNK N   1      49.167   9.923  15.054  0.00  0.00    -0.358 OA
HETATM   22  H   UNK N   1      48.260   9.582  15.040  0.00  0.00     0.218 HD
ENDBRANCH  15  21
ENDBRANCH   3  11
BRANCH   2  23
HETATM   23  O   UNK N   1      50.777  15.488  14.666  0.00  0.00    -0.392 OA
HETATM   24  H   UNK N   1      51.655  15.125  14.379  0.00  0.00     0.210 HD
ENDBRANCH   2  23
BRANCH   7  25
HETATM   25  O   UNK N   1      48.139  19.479  14.370  0.00  0.00    -0.360 OA
HETATM   26  H   UNK N   1      47.568  20.226  14.141  0.00  0.00     0.217 HD
ENDBRANCH   7  25
BRANCH  10  27
HETATM   27  O   UNK N   1      45.048  17.252  17.230  0.00  0.00    -0.361 OA
HETATM   28  H   UNK N   1      44.128  17.326  16.938  0.00  0.00     0.217 HD
ENDBRANCH  10  27
TORSDOF 7
ENDMDL
MODEL 3
REMARK VINA RESULT:      -5.5      1.178      6.845
REMARK  7 active torsions:
REMARK  status: ('A' for Active; 'I' for Inactive)
REMARK    1  A    between atoms: O_2  and  C_8 
REMARK    2  A    between atoms: O_3  and  C_14 
REMARK    3  A    between atoms: O_4  and  C_19 
REMARK    4  A    between atoms: O_5  and  C_20 
REMARK    5  A    between atoms: O_6  and  C_21 
REMARK    6  A    between atoms: O_7  and  C_22 
REMARK    7  A    between atoms: C_9  and  C_12 
ROOT
HETATM    1  O   UNK N   1      77.775  28.417  -4.856  0.00  0.00    -0.338 OA
HETATM    2  C   UNK N   1      79.223  27.447  -6.482  0.00  0.00     0.156 C 
HETATM    3  C   UNK N   1      78.093  27.216  -5.467  0.00  0.00     0.191 C 
HETATM    4  C   UNK N   1      78.727  28.447  -7.544  0.00  0.00     0.079 C 
HETATM    5  C   UNK N   1      78.009  29.626  -6.917  0.00  0.00     0.011 A 
HETATM    6  C   UNK N   1      77.582  29.550  -5.571  0.00  0.00     0.081 A 
HETATM    7  C   UNK N   1      77.736  30.785  -7.664  0.00  0.00     0.077 A 
HETATM    8  C   UNK N   1      76.938  30.634  -4.976  0.00  0.00     0.074 A 
HETATM    9  C   UNK N   1      77.074  31.864  -7.058  0.00  0.00     0.073 A 
HETATM   10  C   UNK N   1      76.681  31.793  -5.717  0.00  0.00     0.071 A 
ENDROOT
BRANCH   3  11
HETATM   11  C   UNK N   1      78.470  26.188  -4.439  0.00  0.00    -0.021 A 
HETATM   12  C   UNK N   1      78.266  26.464  -3.083  0.00  0.00     0.049 A 
HETATM   13  C   UNK N   1      78.594  25.515  -2.109  0.00  0.00     0.102 A 
HETATM   14  C   UNK N   1      79.136  24.276  -2.490  0.00  0.00     0.132 A 
HETATM   15  C   UNK N   1      79.342  23.994  -3.855  0.00  0.00     0.102 A 
HETATM   16  C   UNK N   1      79.007  24.948  -4.821  0.00  0.00     0.049 A 
BRANCH  13  17
HETATM   17  O   UNK N   1      78.389  25.786  -0.803  0.00  0.00    -0.358 OA
HETATM   18  H   UNK N   1      78.393  25.084  -0.136  0.00  0.00     0.218 HD
ENDBRANCH  13  17
BRANCH  14  19
HETATM   19  O   UNK N   1      79.451  23.370  -1.541  0.00  0.00    -0.356 OA
HETATM   20  H   UNK N   1      78.985  22.525  -1.462  0.00  0.00     0.218 HD
ENDBRANCH  14  19
BRANCH  15  21
HETATM   21  O   UNK N   1      79.862  22.806  -4.230  0.00  0.00    -0.358 OA
HETATM   22  H   UNK N   1      79.429  22.250  -4.895  0.00  0.00     0.218 HD
ENDBRANCH  15  21
ENDBRANCH   3  11
BRANCH   2  23
HETATM   23  O   UNK N   1      80.348  27.989  -5.833  0.00  0.00    -0.392 OA
HETATM   24  H   UNK N   1      80.477  28.905  -6.193  0.00  0.00     0.210 HD
ENDBRANCH   2  23
BRANCH   7  25
HETATM   25  O   UNK N   1      78.116  30.859  -8.957  0.00  0.00    -0.360 OA
HETATM   26  H   UNK N   1      78.065  30.094  -9.547  0.00  0.00     0.217 HD
ENDBRANCH   7  25
BRANCH  10  27
HETATM   27  O   UNK N   1      76.046  32.839  -5.150  0.00  0.00    -0.361 OA
HETATM   28  H   UNK N   1      75.207  32.727  -4.680  0.00  0.00     0.217 HD
ENDBRANCH  10  27
TORSDOF 7
ENDMDL
MODEL 4
REMARK VINA RESULT:      -5.5      8.960     12.013
REMARK  7 active torsions:
REMARK  status: ('A' for Active; 'I' for Inactive)
REMARK    1  A    between atoms: O_2  and  C_8 
REMARK    2  A    between atoms: O_3  and  C_14 
REMARK    3  A    between atoms: O_4  and  C_19 
REMARK    4  A    between atoms: O_5  and  C_20 
REMARK    5  A    between atoms: O_6  and  C_21 
REMARK    6  A    between atoms: O_7  and  C_22 
REMARK    7  A    between atoms: C_9  and  C_12 
ROOT
HETATM    1  O   UNK N   1      76.901  36.858   1.027  0.00  0.00    -0.338 OA
HETATM    2  C   UNK N   1      76.759  38.873  -0.238  0.00  0.00     0.156 C 
HETATM    3  C   UNK N   1      76.180  37.473   0.018  0.00  0.00     0.191 C 
HETATM    4  C   UNK N   1      76.632  39.697   1.057  0.00  0.00     0.079 C 
HETATM    5  C   UNK N   1      77.061  38.902   2.275  0.00  0.00     0.011 A 
HETATM    6  C   UNK N   1      77.193  37.497   2.183  0.00  0.00     0.081 A 
HETATM    7  C   UNK N   1      77.301  39.540   3.505  0.00  0.00     0.077 A 
HETATM    8  C   UNK N   1      77.606  36.757   3.291  0.00  0.00     0.074 A 
HETATM    9  C   UNK N   1      77.701  38.782   4.616  0.00  0.00     0.073 A 
HETATM   10  C   UNK N   1      77.860  37.396   4.510  0.00  0.00     0.071 A 
ENDROOT
BRANCH   3  11
HETATM   11  C   UNK N   1      76.194  36.629  -1.226  0.00  0.00    -0.021 A 
HETATM   12  C   UNK N   1      77.223  35.700  -1.416  0.00  0.00     0.049 A 
HETATM   13  C   UNK N   1      77.247  34.893  -2.557  0.00  0.00     0.102 A 
HETATM   14  C   UNK N   1      76.236  35.013  -3.524  0.00  0.00     0.132 A 
HETATM   15  C   UNK N   1      75.197  35.947  -3.336  0.00  0.00     0.102 A 
HETATM   16  C   UNK N   1      75.180  36.747  -2.189  0.00  0.00     0.049 A 
BRANCH  13  17
HETATM   17  O   UNK N   1      78.240  33.995  -2.730  0.00  0.00    -0.358 OA
HETATM   18  H   UNK N   1      79.116  34.266  -3.042  0.00  0.00     0.218 HD
ENDBRANCH  13  17
BRANCH  14  19
HETATM   19  O   UNK N   1      76.271  34.230  -4.622  0.00  0.00    -0.356 OA
HETATM   20  H   UNK N   1      76.982  33.591  -4.775  0.00  0.00     0.218 HD
ENDBRANCH  14  19
BRANCH  15  21
HETATM   21  O   UNK N   1      74.220  36.070  -4.261  0.00  0.00    -0.358 OA
HETATM   22  H   UNK N   1      74.039  36.915  -4.697  0.00  0.00     0.218 HD
ENDBRANCH  15  21
ENDBRANCH   3  11
BRANCH   2  23
HETATM   23  O   UNK N   1      78.119  38.774  -0.586  0.00  0.00    -0.392 OA
HETATM   24  H   UNK N   1      78.642  38.904   0.248  0.00  0.00     0.210 HD
ENDBRANCH   2  23
BRANCH   7  25
HETATM   25  O   UNK N   1      77.153  40.877   3.611  0.00  0.00    -0.360 OA
HETATM   26  H   UNK N   1      76.348  41.273   3.975  0.00  0.00     0.217 HD
ENDBRANCH   7  25
BRANCH  10  27
HETATM   27  O   UNK N   1      78.245  36.682   5.587  0.00  0.00    -0.361 OA
HETATM   28  H   UNK N   1      77.844  35.827   5.797  0.00  0.00     0.217 HD
ENDBRANCH  10  27
TORSDOF 7
ENDMDL
MODEL 5
REMARK VINA RESULT:      -5.4     35.777     38.434
REMARK  7 active torsions:
REMARK  status: ('A' for Active; 'I' for Inactive)
REMARK    1  A    between atoms: O_2  and  C_8 
REMARK    2  A    between atoms: O_3  and  C_14 
REMARK    3  A    between atoms: O_4  and  C_19 
REMARK    4  A    between atoms: O_5  and  C_20 
REMARK    5  A    between atoms: O_6  and  C_21 
REMARK    6  A    between atoms: O_7  and  C_22 
REMARK    7  A    between atoms: C_9  and  C_12 
ROOT
HETATM    1  O   UNK N   1      48.261  14.479  14.431  0.00  0.00    -0.338 OA
HETATM    2  C   UNK N   1      49.742  16.204  13.713  0.00  0.00     0.156 C 
HETATM    3  C   UNK N   1      48.983  15.569  14.888  0.00  0.00     0.191 C 
HETATM    4  C   UNK N   1      50.710  15.154  13.135  0.00  0.00     0.079 C 
HETATM    5  C   UNK N   1      50.044  13.801  12.974  0.00  0.00     0.011 A 
HETATM    6  C   UNK N   1      48.819  13.541  13.631  0.00  0.00     0.081 A 
HETATM    7  C   UNK N   1      50.644  12.789  12.204  0.00  0.00     0.077 A 
HETATM    8  C   UNK N   1      48.187  12.308  13.476  0.00  0.00     0.074 A 
HETATM    9  C   UNK N   1      50.006  11.547  12.068  0.00  0.00     0.073 A 
HETATM   10  C   UNK N   1      48.778  11.307  12.696  0.00  0.00     0.071 A 
ENDROOT
BRANCH   3  11
HETATM   11  C   UNK N   1      48.072  16.556  15.561  0.00  0.00    -0.021 A 
HETATM   12  C   UNK N   1      48.607  17.735  16.091  0.00  0.00     0.049 A 
HETATM   13  C   UNK N   1      47.776  18.677  16.706  0.00  0.00     0.102 A 
HETATM   14  C   UNK N   1      46.394  18.441  16.799  0.00  0.00     0.132 A 
HETATM   15  C   UNK N   1      45.851  17.255  16.265  0.00  0.00     0.102 A 
HETATM   16  C   UNK N   1      46.690  16.321  15.647  0.00  0.00     0.049 A 
BRANCH  13  17
HETATM   17  O   UNK N   1      48.298  19.815  17.210  0.00  0.00    -0.358 OA
HETATM   18  H   UNK N   1      48.070  20.680  16.840  0.00  0.00     0.218 HD
ENDBRANCH  13  17
BRANCH  14  19
HETATM   19  O   UNK N   1      45.603  19.355  17.397  0.00  0.00    -0.356 OA
HETATM   20  H   UNK N   1      45.066  19.981  16.889  0.00  0.00     0.218 HD
ENDBRANCH  14  19
BRANCH  15  21
HETATM   21  O   UNK N   1      44.524  17.019  16.349  0.00  0.00    -0.358 OA
HETATM   22  H   UNK N   1      44.170  16.305  16.901  0.00  0.00     0.218 HD
ENDBRANCH  15  21
ENDBRANCH   3  11
BRANCH   2  23
HETATM   23  O   UNK N   1      48.835  16.592  12.710  0.00  0.00    -0.392 OA
HETATM   24  H   UNK N   1      48.724  15.815  12.102  0.00  0.00     0.210 HD
ENDBRANCH   2  23
BRANCH   7  25
HETATM   25  O   UNK N   1      51.826  13.017  11.594  0.00  0.00    -0.360 OA
HETATM   26  H   UNK N   1      52.646  13.126  12.096  0.00  0.00     0.217 HD
ENDBRANCH   7  25
BRANCH  10  27
HETATM   27  O   UNK N   1      48.178  10.108  12.555  0.00  0.00    -0.361 OA
HETATM   28  H   UNK N   1      48.560   9.303  12.934  0.00  0.00     0.217 HD
ENDBRANCH  10  27
TORSDOF 7
ENDMDL
MODEL 6
REMARK VINA RESULT:      -5.2      2.118      7.702
REMARK  7 active torsions:
REMARK  status: ('A' for Active; 'I' for Inactive)
REMARK    1  A    between atoms: O_2  and  C_8 
REMARK    2  A    between atoms: O_3  and  C_14 
REMARK    3  A    between atoms: O_4  and  C_19 
REMARK    4  A    between atoms: O_5  and  C_20 
REMARK    5  A    between atoms: O_6  and  C_21 
REMARK    6  A    between atoms: O_7  and  C_22 
REMARK    7  A    between atoms: C_9  and  C_12 
ROOT
HETATM    1  O   UNK N   1      79.265  30.682  -7.603  0.00  0.00    -0.338 OA
HETATM    2  C   UNK N   1      77.049  30.970  -6.772  0.00  0.00     0.156 C 
HETATM    3  C   UNK N   1      78.464  30.435  -6.501  0.00  0.00     0.191 C 
HETATM    4  C   UNK N   1      77.141  32.490  -7.008  0.00  0.00     0.079 C 
HETATM    5  C   UNK N   1      78.285  32.848  -7.937  0.00  0.00     0.011 A 
HETATM    6  C   UNK N   1      79.295  31.895  -8.203  0.00  0.00     0.081 A 
HETATM    7  C   UNK N   1      78.372  34.127  -8.514  0.00  0.00     0.077 A 
HETATM    8  C   UNK N   1      80.342  32.205  -9.069  0.00  0.00     0.074 A 
HETATM    9  C   UNK N   1      79.439  34.432  -9.373  0.00  0.00     0.073 A 
HETATM   10  C   UNK N   1      80.419  33.473  -9.656  0.00  0.00     0.071 A 
ENDROOT
BRANCH   3  11
HETATM   11  C   UNK N   1      78.451  28.967  -6.180  0.00  0.00    -0.021 A 
HETATM   12  C   UNK N   1      79.375  28.119  -6.800  0.00  0.00     0.049 A 
HETATM   13  C   UNK N   1      79.393  26.753  -6.504  0.00  0.00     0.102 A 
HETATM   14  C   UNK N   1      78.477  26.222  -5.580  0.00  0.00     0.132 A 
HETATM   15  C   UNK N   1      77.546  27.073  -4.952  0.00  0.00     0.102 A 
HETATM   16  C   UNK N   1      77.539  28.439  -5.252  0.00  0.00     0.049 A 
BRANCH  13  17
HETATM   17  O   UNK N   1      80.291  25.942  -7.102  0.00  0.00    -0.358 OA
HETATM   18  H   UNK N   1      80.407  25.023  -6.818  0.00  0.00     0.218 HD
ENDBRANCH  13  17
BRANCH  14  19
HETATM   19  O   UNK N   1      78.503  24.902  -5.304  0.00  0.00    -0.356 OA
HETATM   20  H   UNK N   1      79.179  24.313  -5.670  0.00  0.00     0.218 HD
ENDBRANCH  14  19
BRANCH  15  21
HETATM   21  O   UNK N   1      76.662  26.572  -4.063  0.00  0.00    -0.358 OA
HETATM   22  H   UNK N   1      76.317  25.670  -4.143  0.00  0.00     0.218 HD
ENDBRANCH  15  21
ENDBRANCH   3  11
BRANCH   2  23
HETATM   23  O   UNK N   1      76.516  30.359  -7.921  0.00  0.00    -0.392 OA
HETATM   24  H   UNK N   1      75.529  30.349  -7.814  0.00  0.00     0.210 HD
ENDBRANCH   2  23
BRANCH   7  25
HETATM   25  O   UNK N   1      77.428  35.053  -8.247  0.00  0.00    -0.360 OA
HETATM   26  H   UNK N   1      76.804  34.947  -7.515  0.00  0.00     0.217 HD
ENDBRANCH   7  25
BRANCH  10  27
HETATM   27  O   UNK N   1      81.438  33.782 -10.483  0.00  0.00    -0.361 OA
HETATM   28  H   UNK N   1      81.446  33.490 -11.406  0.00  0.00     0.217 HD
ENDBRANCH  10  27
TORSDOF 7
ENDMDL
MODEL 7
REMARK VINA RESULT:      -5.2     35.212     37.949
REMARK  7 active torsions:
REMARK  status: ('A' for Active; 'I' for Inactive)
REMARK    1  A    between atoms: O_2  and  C_8 
REMARK    2  A    between atoms: O_3  and  C_14 
REMARK    3  A    between atoms: O_4  and  C_19 
REMARK    4  A    between atoms: O_5  and  C_20 
REMARK    5  A    between atoms: O_6  and  C_21 
REMARK    6  A    between atoms: O_7  and  C_22 
REMARK    7  A    between atoms: C_9  and  C_12 
ROOT
HETATM    1  O   UNK N   1      49.576  15.560  13.928  0.00  0.00    -0.338 OA
HETATM    2  C   UNK N   1      47.995  14.353  15.242  0.00  0.00     0.156 C 
HETATM    3  C   UNK N   1      48.310  15.650  14.480  0.00  0.00     0.191 C 
HETATM    4  C   UNK N   1      48.037  13.180  14.245  0.00  0.00     0.079 C 
HETATM    5  C   UNK N   1      49.246  13.257  13.333  0.00  0.00     0.011 A 
HETATM    6  C   UNK N   1      49.975  14.465  13.240  0.00  0.00     0.081 A 
HETATM    7  C   UNK N   1      49.635  12.153  12.556  0.00  0.00     0.077 A 
HETATM    8  C   UNK N   1      51.101  14.544  12.420  0.00  0.00     0.074 A 
HETATM    9  C   UNK N   1      50.761  12.249  11.723  0.00  0.00     0.073 A 
HETATM   10  C   UNK N   1      51.496  13.438  11.659  0.00  0.00     0.071 A 
ENDROOT
BRANCH   3  11
HETATM   11  C   UNK N   1      48.210  16.856  15.371  0.00  0.00    -0.021 A 
HETATM   12  C   UNK N   1      49.380  17.475  15.825  0.00  0.00     0.049 A 
HETATM   13  C   UNK N   1      49.311  18.609  16.640  0.00  0.00     0.102 A 
HETATM   14  C   UNK N   1      48.062  19.133  17.011  0.00  0.00     0.132 A 
HETATM   15  C   UNK N   1      46.881  18.513  16.555  0.00  0.00     0.102 A 
HETATM   16  C   UNK N   1      46.960  17.382  15.736  0.00  0.00     0.049 A 
BRANCH  13  17
HETATM   17  O   UNK N   1      50.444  19.204  17.069  0.00  0.00    -0.358 OA
HETATM   18  H   UNK N   1      51.034  18.767  17.701  0.00  0.00     0.218 HD
ENDBRANCH  13  17
BRANCH  14  19
HETATM   19  O   UNK N   1      48.009  20.226  17.800  0.00  0.00    -0.356 OA
HETATM   20  H   UNK N   1      47.777  21.100  17.453  0.00  0.00     0.218 HD
ENDBRANCH  14  19
BRANCH  15  21
HETATM   21  O   UNK N   1      45.676  19.010  16.906  0.00  0.00    -0.358 OA
HETATM   22  H   UNK N   1      45.261  18.784  17.753  0.00  0.00     0.218 HD
ENDBRANCH  15  21
ENDBRANCH   3  11
BRANCH   2  23
HETATM   23  O   UNK N   1      48.960  14.138  16.243  0.00  0.00    -0.392 OA
HETATM   24  H   UNK N   1      48.605  14.539  17.080  0.00  0.00     0.210 HD
ENDBRANCH   2  23
BRANCH   7  25
HETATM   25  O   UNK N   1      48.931  11.003  12.618  0.00  0.00    -0.360 OA
HETATM   26  H   UNK N   1      48.675  10.520  11.820  0.00  0.00     0.217 HD
ENDBRANCH   7  25
BRANCH  10  27
HETATM   27  O   UNK N   1      52.575  13.514  10.854  0.00  0.00    -0.361 OA
HETATM   28  H   UNK N   1      53.454  13.245  11.160  0.00  0.00     0.217 HD
ENDBRANCH  10  27
TORSDOF 7
ENDMDL
MODEL 8
REMARK VINA RESULT:      -5.2     36.485     38.495
REMARK  7 active torsions:
REMARK  status: ('A' for Active; 'I' for Inactive)
REMARK    1  A    between atoms: O_2  and  C_8 
REMARK    2  A    between atoms: O_3  and  C_14 
REMARK    3  A    between atoms: O_4  and  C_19 
REMARK    4  A    between atoms: O_5  and  C_20 
REMARK    5  A    between atoms: O_6  and  C_21 
REMARK    6  A    between atoms: O_7  and  C_22 
REMARK    7  A    between atoms: C_9  and  C_12 
ROOT
HETATM    1  O   UNK N   1      49.054  14.729  13.866  0.00  0.00    -0.338 OA
HETATM    2  C   UNK N   1      46.959  14.163  14.852  0.00  0.00     0.156 C 
HETATM    3  C   UNK N   1      47.792  15.233  14.129  0.00  0.00     0.191 C 
HETATM    4  C   UNK N   1      46.838  12.935  13.930  0.00  0.00     0.079 C 
HETATM    5  C   UNK N   1      48.168  12.571  13.298  0.00  0.00     0.011 A 
HETATM    6  C   UNK N   1      49.231  13.503  13.319  0.00  0.00     0.081 A 
HETATM    7  C   UNK N   1      48.349  11.330  12.663  0.00  0.00     0.077 A 
HETATM    8  C   UNK N   1      50.464  13.174  12.758  0.00  0.00     0.074 A 
HETATM    9  C   UNK N   1      49.590  11.016  12.089  0.00  0.00     0.073 A 
HETATM   10  C   UNK N   1      50.647  11.931  12.141  0.00  0.00     0.071 A 
ENDROOT
BRANCH   3  11
HETATM   11  C   UNK N   1      47.890  16.499  14.932  0.00  0.00    -0.021 A 
HETATM   12  C   UNK N   1      46.720  17.163  15.315  0.00  0.00     0.049 A 
HETATM   13  C   UNK N   1      46.786  18.333  16.077  0.00  0.00     0.102 A 
HETATM   14  C   UNK N   1      48.034  18.852  16.461  0.00  0.00     0.132 A 
HETATM   15  C   UNK N   1      49.215  18.186  16.078  0.00  0.00     0.102 A 
HETATM   16  C   UNK N   1      49.138  17.013  15.320  0.00  0.00     0.049 A 
BRANCH  13  17
HETATM   17  O   UNK N   1      45.653  18.965  16.448  0.00  0.00    -0.358 OA
HETATM   18  H   UNK N   1      44.969  19.195  15.801  0.00  0.00     0.218 HD
ENDBRANCH  13  17
BRANCH  14  19
HETATM   19  O   UNK N   1      48.085  19.984  17.195  0.00  0.00    -0.356 OA
HETATM   20  H   UNK N   1      47.489  20.140  17.941  0.00  0.00     0.218 HD
ENDBRANCH  14  19
BRANCH  15  21
HETATM   21  O   UNK N   1      50.419  18.677  16.443  0.00  0.00    -0.358 OA
HETATM   22  H   UNK N   1      50.643  19.612  16.324  0.00  0.00     0.218 HD
ENDBRANCH  15  21
ENDBRANCH   3  11
BRANCH   2  23
HETATM   23  O   UNK N   1      47.601  13.780  16.044  0.00  0.00    -0.392 OA
HETATM   24  H   UNK N   1      46.888  13.591  16.709  0.00  0.00     0.210 HD
ENDBRANCH   2  23
BRANCH   7  25
HETATM   25  O   UNK N   1      47.333  10.443  12.614  0.00  0.00    -0.360 OA
HETATM   26  H   UNK N   1      46.409  10.724  12.675  0.00  0.00     0.217 HD
ENDBRANCH   7  25
BRANCH  10  27
HETATM   27  O   UNK N   1      51.834  11.614  11.585  0.00  0.00    -0.361 OA
HETATM   28  H   UNK N   1      52.106  11.980  10.730  0.00  0.00     0.217 HD
ENDBRANCH  10  27
TORSDOF 7
ENDMDL
MODEL 9
REMARK VINA RESULT:      -5.2      9.513     12.640
REMARK  7 active torsions:
REMARK  status: ('A' for Active; 'I' for Inactive)
REMARK    1  A    between atoms: O_2  and  C_8 
REMARK    2  A    between atoms: O_3  and  C_14 
REMARK    3  A    between atoms: O_4  and  C_19 
REMARK    4  A    between atoms: O_5  and  C_20 
REMARK    5  A    between atoms: O_6  and  C_21 
REMARK    6  A    between atoms: O_7  and  C_22 
REMARK    7  A    between atoms: C_9  and  C_12 
ROOT
HETATM    1  O   UNK N   1      76.314  37.474   0.443  0.00  0.00    -0.338 OA
HETATM    2  C   UNK N   1      78.220  36.058   0.651  0.00  0.00     0.156 C 
HETATM    3  C   UNK N   1      76.968  36.635   1.329  0.00  0.00     0.191 C 
HETATM    4  C   UNK N   1      77.777  35.252  -0.585  0.00  0.00     0.079 C 
HETATM    5  C   UNK N   1      76.740  35.998  -1.402  0.00  0.00     0.011 A 
HETATM    6  C   UNK N   1      76.066  37.104  -0.836  0.00  0.00     0.081 A 
HETATM    7  C   UNK N   1      76.417  35.586  -2.707  0.00  0.00     0.077 A 
HETATM    8  C   UNK N   1      75.124  37.810  -1.583  0.00  0.00     0.074 A 
HETATM    9  C   UNK N   1      75.456  36.296  -3.444  0.00  0.00     0.073 A 
HETATM   10  C   UNK N   1      74.816  37.408  -2.887  0.00  0.00     0.071 A 
ENDROOT
BRANCH   3  11
HETATM   11  C   UNK N   1      77.309  37.371   2.594  0.00  0.00    -0.021 A 
HETATM   12  C   UNK N   1      77.178  38.763   2.636  0.00  0.00     0.049 A 
HETATM   13  C   UNK N   1      77.473  39.467   3.807  0.00  0.00     0.102 A 
HETATM   14  C   UNK N   1      77.908  38.777   4.952  0.00  0.00     0.132 A 
HETATM   15  C   UNK N   1      78.041  37.375   4.913  0.00  0.00     0.102 A 
HETATM   16  C   UNK N   1      77.738  36.679   3.737  0.00  0.00     0.049 A 
BRANCH  13  17
HETATM   17  O   UNK N   1      77.339  40.810   3.843  0.00  0.00    -0.358 OA
HETATM   18  H   UNK N   1      77.149  41.275   4.671  0.00  0.00     0.218 HD
ENDBRANCH  13  17
BRANCH  14  19
HETATM   19  O   UNK N   1      78.192  39.468   6.075  0.00  0.00    -0.356 OA
HETATM   20  H   UNK N   1      77.723  40.282   6.311  0.00  0.00     0.218 HD
ENDBRANCH  14  19
BRANCH  15  21
HETATM   21  O   UNK N   1      78.458  36.703   6.007  0.00  0.00    -0.358 OA
HETATM   22  H   UNK N   1      79.099  35.979   5.944  0.00  0.00     0.218 HD
ENDBRANCH  15  21
ENDBRANCH   3  11
BRANCH   2  23
HETATM   23  O   UNK N   1      79.067  37.103   0.238  0.00  0.00    -0.392 OA
HETATM   24  H   UNK N   1      79.066  37.781   0.963  0.00  0.00     0.210 HD
ENDBRANCH   2  23
BRANCH   7  25
HETATM   25  O   UNK N   1      77.036  34.516  -3.249  0.00  0.00    -0.360 OA
HETATM   26  H   UNK N   1      77.571  34.590  -4.052  0.00  0.00     0.217 HD
ENDBRANCH   7  25
BRANCH  10  27
HETATM   27  O   UNK N   1      73.895  38.079  -3.608  0.00  0.00    -0.361 OA
HETATM   28  H   UNK N   1      72.965  37.809  -3.619  0.00  0.00     0.217 HD
ENDBRANCH  10  27
TORSDOF 7
ENDMDL
