MODEL 1
REMARK VINA RESULT:      -4.5      0.000      0.000
REMARK  4 active torsions:
REMARK  status: ('A' for Active; 'I' for Inactive)
REMARK    1  A    between atoms: O_1  and  C_7 
REMARK    2  A    between atoms: O_2  and  C_9 
REMARK    3  A    between atoms: O_3  and  C_11 
REMARK    4  A    between atoms: C_5  and  C_11 
ROOT
HETATM    1  C   UNK N   1      49.650  14.239  13.165  0.00  0.00     0.040 A 
HETATM    2  C   UNK N   1      50.766  14.528  12.353  0.00  0.00     0.057 A 
HETATM    3  C   UNK N   1      51.533  13.487  11.807  0.00  0.00     0.099 A 
HETATM    4  C   UNK N   1      49.317  12.900  13.421  0.00  0.00     0.021 A 
HETATM    5  C   UNK N   1      51.185  12.149  12.072  0.00  0.00     0.098 A 
HETATM    6  C   UNK N   1      50.076  11.866  12.879  0.00  0.00     0.040 A 
ENDROOT
BRANCH   1   7
HETATM    7  C   UNK N   1      48.825  15.321  13.753  0.00  0.00     0.176 C 
HETATM    8  O   UNK N   1      49.197  15.910  14.757  0.00  0.00    -0.646 OA
BRANCH   7   9
HETATM    9  O   UNK N   1      47.652  15.660  13.173  0.00  0.00    -0.773 OA
HETATM   10  H   UNK N   1      47.367  15.269  12.336  0.00  0.00     0.167 HD
ENDBRANCH   7   9
ENDBRANCH   1   7
BRANCH   3  11
HETATM   11  O   UNK N   1      52.596  13.787  11.032  0.00  0.00    -0.358 OA
HETATM   12  H   UNK N   1      53.040  13.122  10.487  0.00  0.00     0.218 HD
ENDBRANCH   3  11
BRANCH   5  13
HETATM   13  O   UNK N   1      51.915  11.141  11.552  0.00  0.00    -0.358 OA
HETATM   14  H   UNK N   1      52.502  10.603  12.105  0.00  0.00     0.218 HD
ENDBRANCH   5  13
TORSDOF 4
ENDMDL
MODEL 2
REMARK VINA RESULT:      -4.5     35.243     36.633
REMARK  4 active torsions:
REMARK  status: ('A' for Active; 'I' for Inactive)
REMARK    1  A    between atoms: O_1  and  C_7 
REMARK    2  A    between atoms: O_2  and  C_9 
REMARK    3  A    between atoms: O_3  and  C_11 
REMARK    4  A    between atoms: C_5  and  C_11 
ROOT
HETATM    1  C   UNK N   1      77.042  30.488  -6.403  0.00  0.00     0.040 A 
HETATM    2  C   UNK N   1      77.296  29.420  -7.287  0.00  0.00     0.057 A 
HETATM    3  C   UNK N   1      77.424  28.111  -6.799  0.00  0.00     0.099 A 
HETATM    4  C   UNK N   1      76.920  30.225  -5.029  0.00  0.00     0.021 A 
HETATM    5  C   UNK N   1      77.298  27.864  -5.419  0.00  0.00     0.098 A 
HETATM    6  C   UNK N   1      77.045  28.927  -4.543  0.00  0.00     0.040 A 
ENDROOT
BRANCH   1   7
HETATM    7  C   UNK N   1      76.903  31.879  -6.894  0.00  0.00     0.176 C 
HETATM    8  O   UNK N   1      77.634  32.303  -7.776  0.00  0.00    -0.646 OA
BRANCH   7   9
HETATM    9  O   UNK N   1      75.956  32.686  -6.363  0.00  0.00    -0.773 OA
HETATM   10  H   UNK N   1      75.526  32.479  -5.522  0.00  0.00     0.167 HD
ENDBRANCH   7   9
ENDBRANCH   1   7
BRANCH   3  11
HETATM   11  O   UNK N   1      77.667  27.104  -7.665  0.00  0.00    -0.358 OA
HETATM   12  H   UNK N   1      78.076  27.256  -8.530  0.00  0.00     0.218 HD
ENDBRANCH   3  11
BRANCH   5  13
HETATM   13  O   UNK N   1      77.420  26.609  -4.939  0.00  0.00    -0.358 OA
HETATM   14  H   UNK N   1      77.730  25.881  -5.497  0.00  0.00     0.218 HD
ENDBRANCH   5  13
TORSDOF 4
ENDMDL
MODEL 3
REMARK VINA RESULT:      -4.4     33.193     34.919
REMARK  4 active torsions:
REMARK  status: ('A' for Active; 'I' for Inactive)
REMARK    1  A    between atoms: O_1  and  C_7 
REMARK    2  A    between atoms: O_2  and  C_9 
REMARK    3  A    between atoms: O_3  and  C_11 
REMARK    4  A    between atoms: C_5  and  C_11 
ROOT
HETATM    1  C   UNK N   1      80.393  30.352   3.757  0.00  0.00     0.040 A 
HETATM    2  C   UNK N   1      80.458  29.226   4.601  0.00  0.00     0.057 A 
HETATM    3  C   UNK N   1      79.435  28.266   4.584  0.00  0.00     0.099 A 
HETATM    4  C   UNK N   1      79.291  30.501   2.899  0.00  0.00     0.021 A 
HETATM    5  C   UNK N   1      78.338  28.430   3.717  0.00  0.00     0.098 A 
HETATM    6  C   UNK N   1      78.275  29.550   2.879  0.00  0.00     0.040 A 
ENDROOT
BRANCH   1   7
HETATM    7  C   UNK N   1      81.461  31.379   3.757  0.00  0.00     0.176 C 
HETATM    8  O   UNK N   1      81.210  32.536   3.453  0.00  0.00    -0.646 OA
BRANCH   7   9
HETATM    9  O   UNK N   1      82.723  31.034   4.098  0.00  0.00    -0.773 OA
HETATM   10  H   UNK N   1      83.416  30.923   3.434  0.00  0.00     0.167 HD
ENDBRANCH   7   9
ENDBRANCH   1   7
BRANCH   3  11
HETATM   11  O   UNK N   1      79.520  27.195   5.402  0.00  0.00    -0.358 OA
HETATM   12  H   UNK N   1      80.231  27.099   6.052  0.00  0.00     0.218 HD
ENDBRANCH   3  11
BRANCH   5  13
HETATM   13  O   UNK N   1      77.348  27.513   3.692  0.00  0.00    -0.358 OA
HETATM   14  H   UNK N   1      77.086  27.073   2.870  0.00  0.00     0.218 HD
ENDBRANCH   5  13
TORSDOF 4
ENDMDL
MODEL 4
REMARK VINA RESULT:      -4.3     35.550     36.701
REMARK  4 active torsions:
REMARK  status: ('A' for Active; 'I' for Inactive)
REMARK    1  A    between atoms: O_1  and  C_7 
REMARK    2  A    between atoms: O_2  and  C_9 
REMARK    3  A    between atoms: O_3  and  C_11 
REMARK    4  A    between atoms: C_5  and  C_11 
ROOT
HETATM    1  C   UNK N   1      77.879  28.042  -6.077  0.00  0.00     0.040 A 
HETATM    2  C   UNK N   1      77.695  28.908  -7.174  0.00  0.00     0.057 A 
HETATM    3  C   UNK N   1      77.120  30.174  -6.988  0.00  0.00     0.099 A 
HETATM    4  C   UNK N   1      77.480  28.461  -4.799  0.00  0.00     0.021 A 
HETATM    5  C   UNK N   1      76.726  30.581  -5.699  0.00  0.00     0.098 A 
HETATM    6  C   UNK N   1      76.911  29.718  -4.612  0.00  0.00     0.040 A 
ENDROOT
BRANCH   1   7
HETATM    7  C   UNK N   1      78.483  26.699  -6.248  0.00  0.00     0.176 C 
HETATM    8  O   UNK N   1      79.536  26.564  -6.854  0.00  0.00    -0.646 OA
BRANCH   7   9
HETATM    9  O   UNK N   1      77.866  25.615  -5.727  0.00  0.00    -0.773 OA
HETATM   10  H   UNK N   1      77.896  25.419  -4.781  0.00  0.00     0.167 HD
ENDBRANCH   7   9
ENDBRANCH   1   7
BRANCH   3  11
HETATM   11  O   UNK N   1      76.955  30.987  -8.054  0.00  0.00    -0.358 OA
HETATM   12  H   UNK N   1      77.463  30.875  -8.870  0.00  0.00     0.218 HD
ENDBRANCH   3  11
BRANCH   5  13
HETATM   13  O   UNK N   1      76.173  31.797  -5.509  0.00  0.00    -0.358 OA
HETATM   14  H   UNK N   1      75.235  31.897  -5.289  0.00  0.00     0.218 HD
ENDBRANCH   5  13
TORSDOF 4
ENDMDL
MODEL 5
REMARK VINA RESULT:      -4.3     40.839     42.340
REMARK  4 active torsions:
REMARK  status: ('A' for Active; 'I' for Inactive)
REMARK    1  A    between atoms: O_1  and  C_7 
REMARK    2  A    between atoms: O_2  and  C_9 
REMARK    3  A    between atoms: O_3  and  C_11 
REMARK    4  A    between atoms: C_5  and  C_11 
ROOT
HETATM    1  C   UNK N   1      69.141  43.444 -11.518  0.00  0.00     0.040 A 
HETATM    2  C   UNK N   1      68.952  42.595 -10.409  0.00  0.00     0.057 A 
HETATM    3  C   UNK N   1      67.996  42.908  -9.431  0.00  0.00     0.099 A 
HETATM    4  C   UNK N   1      68.362  44.606 -11.631  0.00  0.00     0.021 A 
HETATM    5  C   UNK N   1      67.222  44.076  -9.559  0.00  0.00     0.098 A 
HETATM    6  C   UNK N   1      67.412  44.918 -10.662  0.00  0.00     0.040 A 
ENDROOT
BRANCH   1   7
HETATM    7  C   UNK N   1      70.145  43.135 -12.563  0.00  0.00     0.176 C 
HETATM    8  O   UNK N   1      71.323  43.413 -12.396  0.00  0.00    -0.646 OA
BRANCH   7   9
HETATM    9  O   UNK N   1      69.754  42.538 -13.712  0.00  0.00    -0.773 OA
HETATM   10  H   UNK N   1      69.559  41.592 -13.752  0.00  0.00     0.167 HD
ENDBRANCH   7   9
ENDBRANCH   1   7
BRANCH   3  11
HETATM   11  O   UNK N   1      67.832  42.078  -8.378  0.00  0.00    -0.358 OA
HETATM   12  H   UNK N   1      67.130  41.413  -8.351  0.00  0.00     0.218 HD
ENDBRANCH   3  11
BRANCH   5  13
HETATM   13  O   UNK N   1      66.299  44.387  -8.625  0.00  0.00    -0.358 OA
HETATM   14  H   UNK N   1      66.098  43.786  -7.893  0.00  0.00     0.218 HD
ENDBRANCH   5  13
TORSDOF 4
ENDMDL
MODEL 6
REMARK VINA RESULT:      -4.2     34.449     35.951
REMARK  4 active torsions:
REMARK  status: ('A' for Active; 'I' for Inactive)
REMARK    1  A    between atoms: O_1  and  C_7 
REMARK    2  A    between atoms: O_2  and  C_9 
REMARK    3  A    between atoms: O_3  and  C_11 
REMARK    4  A    between atoms: C_5  and  C_11 
ROOT
HETATM    1  C   UNK N   1      77.596  27.899  -4.800  0.00  0.00     0.040 A 
HETATM    2  C   UNK N   1      77.102  29.188  -4.515  0.00  0.00     0.057 A 
HETATM    3  C   UNK N   1      76.764  30.065  -5.557  0.00  0.00     0.099 A 
HETATM    4  C   UNK N   1      77.746  27.505  -6.139  0.00  0.00     0.021 A 
HETATM    5  C   UNK N   1      76.920  29.653  -6.894  0.00  0.00     0.098 A 
HETATM    6  C   UNK N   1      77.411  28.372  -7.175  0.00  0.00     0.040 A 
ENDROOT
BRANCH   1   7
HETATM    7  C   UNK N   1      77.960  26.956  -3.717  0.00  0.00     0.176 C 
HETATM    8  O   UNK N   1      79.101  26.919  -3.282  0.00  0.00    -0.646 OA
BRANCH   7   9
HETATM    9  O   UNK N   1      77.020  26.129  -3.204  0.00  0.00    -0.773 OA
HETATM   10  H   UNK N   1      76.841  26.091  -2.255  0.00  0.00     0.167 HD
ENDBRANCH   7   9
ENDBRANCH   1   7
BRANCH   3  11
HETATM   11  O   UNK N   1      76.292  31.294  -5.259  0.00  0.00    -0.358 OA
HETATM   12  H   UNK N   1      76.842  32.088  -5.332  0.00  0.00     0.218 HD
ENDBRANCH   3  11
BRANCH   5  13
HETATM   13  O   UNK N   1      76.598  30.488  -7.904  0.00  0.00    -0.358 OA
HETATM   14  H   UNK N   1      75.694  30.815  -8.023  0.00  0.00     0.218 HD
ENDBRANCH   5  13
TORSDOF 4
ENDMDL
MODEL 7
REMARK VINA RESULT:      -4.1      2.626      5.118
REMARK  4 active torsions:
REMARK  status: ('A' for Active; 'I' for Inactive)
REMARK    1  A    between atoms: O_1  and  C_7 
REMARK    2  A    between atoms: O_2  and  C_9 
REMARK    3  A    between atoms: O_3  and  C_11 
REMARK    4  A    between atoms: C_5  and  C_11 
ROOT
HETATM    1  C   UNK N   1      49.894  15.587  13.994  0.00  0.00     0.040 A 
HETATM    2  C   UNK N   1      49.673  16.860  13.430  0.00  0.00     0.057 A 
HETATM    3  C   UNK N   1      49.715  18.009  14.233  0.00  0.00     0.099 A 
HETATM    4  C   UNK N   1      50.154  15.484  15.370  0.00  0.00     0.021 A 
HETATM    5  C   UNK N   1      49.978  17.889  15.611  0.00  0.00     0.098 A 
HETATM    6  C   UNK N   1      50.196  16.623  16.170  0.00  0.00     0.040 A 
ENDROOT
BRANCH   1   7
HETATM    7  C   UNK N   1      49.855  14.359  13.166  0.00  0.00     0.176 C 
HETATM    8  O   UNK N   1      49.173  13.403  13.504  0.00  0.00    -0.646 OA
BRANCH   7   9
HETATM    9  O   UNK N   1      50.579  14.296  12.026  0.00  0.00    -0.773 OA
HETATM   10  H   UNK N   1      50.231  14.621  11.185  0.00  0.00     0.167 HD
ENDBRANCH   7   9
ENDBRANCH   1   7
BRANCH   3  11
HETATM   11  O   UNK N   1      49.502  19.217  13.670  0.00  0.00    -0.358 OA
HETATM   12  H   UNK N   1      49.846  19.444  12.794  0.00  0.00     0.218 HD
ENDBRANCH   3  11
BRANCH   5  13
HETATM   13  O   UNK N   1      50.020  18.987  16.394  0.00  0.00    -0.358 OA
HETATM   14  H   UNK N   1      49.318  19.182  17.031  0.00  0.00     0.218 HD
ENDBRANCH   5  13
TORSDOF 4
ENDMDL
MODEL 8
REMARK VINA RESULT:      -4.1     36.176     37.875
REMARK  4 active torsions:
REMARK  status: ('A' for Active; 'I' for Inactive)
REMARK    1  A    between atoms: O_1  and  C_7 
REMARK    2  A    between atoms: O_2  and  C_9 
REMARK    3  A    between atoms: O_3  and  C_11 
REMARK    4  A    between atoms: C_5  and  C_11 
ROOT
HETATM    1  C   UNK N   1      77.147  30.578  -6.841  0.00  0.00     0.040 A 
HETATM    2  C   UNK N   1      76.644  31.410  -5.820  0.00  0.00     0.057 A 
HETATM    3  C   UNK N   1      76.858  32.795  -5.865  0.00  0.00     0.099 A 
HETATM    4  C   UNK N   1      77.865  31.153  -7.901  0.00  0.00     0.021 A 
HETATM    5  C   UNK N   1      77.579  33.357  -6.936  0.00  0.00     0.098 A 
HETATM    6  C   UNK N   1      78.078  32.528  -7.948  0.00  0.00     0.040 A 
ENDROOT
BRANCH   1   7
HETATM    7  C   UNK N   1      76.934  29.112  -6.816  0.00  0.00     0.176 C 
HETATM    8  O   UNK N   1      76.545  28.558  -5.798  0.00  0.00    -0.646 OA
BRANCH   7   9
HETATM    9  O   UNK N   1      77.169  28.381  -7.929  0.00  0.00    -0.773 OA
HETATM   10  H   UNK N   1      77.775  28.685  -8.618  0.00  0.00     0.167 HD
ENDBRANCH   7   9
ENDBRANCH   1   7
BRANCH   3  11
HETATM   11  O   UNK N   1      76.365  33.572  -4.876  0.00  0.00    -0.358 OA
HETATM   12  H   UNK N   1      76.862  34.320  -4.514  0.00  0.00     0.218 HD
ENDBRANCH   3  11
BRANCH   5  13
HETATM   13  O   UNK N   1      77.791  34.688  -6.989  0.00  0.00    -0.358 OA
HETATM   14  H   UNK N   1      77.319  35.300  -6.404  0.00  0.00     0.218 HD
ENDBRANCH   5  13
TORSDOF 4
ENDMDL
MODEL 9
REMARK VINA RESULT:      -4.0     34.668     35.570
REMARK  4 active torsions:
REMARK  status: ('A' for Active; 'I' for Inactive)
REMARK    1  A    between atoms: O_1  and  C_7 
REMARK    2  A    between atoms: O_2  and  C_9 
REMARK    3  A    between atoms: O_3  and  C_11 
REMARK    4  A    between atoms: C_5  and  C_11 
ROOT
HETATM    1  C   UNK N   1      45.640  36.084 -14.146  0.00  0.00     0.040 A 
HETATM    2  C   UNK N   1      46.916  36.296 -13.587  0.00  0.00     0.057 A 
HETATM    3  C   UNK N   1      48.038  36.444 -14.417  0.00  0.00     0.099 A 
HETATM    4  C   UNK N   1      45.504  36.023 -15.541  0.00  0.00     0.021 A 
HETATM    5  C   UNK N   1      47.885  36.381 -15.816  0.00  0.00     0.098 A 
HETATM    6  C   UNK N   1      46.615  36.171 -16.368  0.00  0.00     0.040 A 
ENDROOT
BRANCH   1   7
HETATM    7  C   UNK N   1      44.441  35.925 -13.290  0.00  0.00     0.176 C 
HETATM    8  O   UNK N   1      43.372  36.416 -13.620  0.00  0.00    -0.646 OA
BRANCH   7   9
HETATM    9  O   UNK N   1      44.530  35.228 -12.134  0.00  0.00    -0.773 OA
HETATM   10  H   UNK N   1      45.384  34.975 -11.758  0.00  0.00     0.167 HD
ENDBRANCH   7   9
ENDBRANCH   1   7
BRANCH   3  11
HETATM   11  O   UNK N   1      49.250  36.646 -13.860  0.00  0.00    -0.358 OA
HETATM   12  H   UNK N   1      49.355  37.061 -12.991  0.00  0.00     0.218 HD
ENDBRANCH   3  11
BRANCH   5  13
HETATM   13  O   UNK N   1      48.957  36.522 -16.624  0.00  0.00    -0.358 OA
HETATM   14  H   UNK N   1      49.798  36.869 -16.293  0.00  0.00     0.218 HD
ENDBRANCH   5  13
TORSDOF 4
ENDMDL
