MODEL 1
REMARK VINA RESULT:      -4.1      0.000      0.000
REMARK  1 active torsions:
REMARK  status: ('A' for Active; 'I' for Inactive)
REMARK       I    between atoms: N_4  and  C_9 
REMARK    1  A    between atoms: C_5  and  C_9 
ROOT
HETATM    1  N   UNK N   1      76.898  29.851  -7.769  0.00  0.00    -0.374 N 
ATOM      2  HN  UNK N   1      76.877  29.700  -8.777  1.00  0.00     0.164 HD
HETATM    3  C   UNK N   1      77.111  31.357  -5.906  0.00  0.00     0.047 A 
HETATM    4  C   UNK N   1      76.953  30.257  -5.038  0.00  0.00     0.020 A 
HETATM    5  C   UNK N   1      77.077  31.112  -7.295  0.00  0.00     0.104 A 
HETATM    6  C   UNK N   1      76.771  28.973  -5.558  0.00  0.00     0.018 A 
HETATM    7  C   UNK N   1      76.746  28.789  -6.939  0.00  0.00     0.087 A 
ENDROOT
BRANCH   3   8
HETATM    8  C   UNK N   1      77.309  32.734  -5.342  0.00  0.00     0.250 C 
HETATM    9  O   UNK N   1      78.442  33.177  -5.233  0.00  0.00    -0.268 OA
HETATM   10  N   UNK N   1      76.264  33.509  -4.945  0.00  0.00    -0.366 N 
HETATM   11  H   UNK N   1      75.289  33.197  -5.009  0.00  0.00     0.159 HD
HETATM   12  H   UNK N   1      76.437  34.450  -4.564  0.00  0.00     0.159 HD
ENDBRANCH   3   8
TORSDOF 1
ENDMDL
MODEL 2
REMARK VINA RESULT:      -4.1      5.796      7.560
REMARK  1 active torsions:
REMARK  status: ('A' for Active; 'I' for Inactive)
REMARK       I    between atoms: N_4  and  C_9 
REMARK    1  A    between atoms: C_5  and  C_9 
ROOT
HETATM    1  N   UNK N   1      75.862  37.876  -0.400  0.00  0.00    -0.374 N 
ATOM      2  HN  UNK N   1      75.620  38.832  -0.139  1.00  0.00     0.164 HD
HETATM    3  C   UNK N   1      75.770  36.078  -1.994  0.00  0.00     0.047 A 
HETATM    4  C   UNK N   1      76.522  35.288  -1.100  0.00  0.00     0.020 A 
HETATM    5  C   UNK N   1      75.451  37.397  -1.602  0.00  0.00     0.104 A 
HETATM    6  C   UNK N   1      76.929  35.813   0.129  0.00  0.00     0.018 A 
HETATM    7  C   UNK N   1      76.586  37.121   0.464  0.00  0.00     0.087 A 
ENDROOT
BRANCH   3   8
HETATM    8  C   UNK N   1      75.334  35.509  -3.313  0.00  0.00     0.250 C 
HETATM    9  O   UNK N   1      76.150  34.926  -4.010  0.00  0.00    -0.268 OA
HETATM   10  N   UNK N   1      74.054  35.621  -3.759  0.00  0.00    -0.366 N 
HETATM   11  H   UNK N   1      73.322  36.098  -3.224  0.00  0.00     0.159 HD
HETATM   12  H   UNK N   1      73.790  35.217  -4.669  0.00  0.00     0.159 HD
ENDBRANCH   3   8
TORSDOF 1
ENDMDL
MODEL 3
REMARK VINA RESULT:      -4.0      1.297      1.330
REMARK  1 active torsions:
REMARK  status: ('A' for Active; 'I' for Inactive)
REMARK       I    between atoms: N_4  and  C_9 
REMARK    1  A    between atoms: C_5  and  C_9 
ROOT
HETATM    1  N   UNK N   1      77.288  28.583  -7.080  0.00  0.00    -0.374 N 
ATOM      2  HN  UNK N   1      77.374  28.002  -7.914  1.00  0.00     0.164 HD
HETATM    3  C   UNK N   1      76.932  30.745  -6.089  0.00  0.00     0.047 A 
HETATM    4  C   UNK N   1      77.059  30.149  -4.817  0.00  0.00     0.020 A 
HETATM    5  C   UNK N   1      77.055  29.913  -7.223  0.00  0.00     0.104 A 
HETATM    6  C   UNK N   1      77.298  28.777  -4.706  0.00  0.00     0.018 A 
HETATM    7  C   UNK N   1      77.411  28.004  -5.859  0.00  0.00     0.087 A 
ENDROOT
BRANCH   3   8
HETATM    8  C   UNK N   1      76.677  32.220  -6.204  0.00  0.00     0.250 C 
HETATM    9  O   UNK N   1      76.893  32.782  -7.267  0.00  0.00    -0.268 OA
HETATM   10  N   UNK N   1      76.210  32.955  -5.159  0.00  0.00    -0.366 N 
HETATM   11  H   UNK N   1      76.009  32.545  -4.241  0.00  0.00     0.159 HD
HETATM   12  H   UNK N   1      76.045  33.965  -5.274  0.00  0.00     0.159 HD
ENDBRANCH   3   8
TORSDOF 1
ENDMDL
MODEL 4
REMARK VINA RESULT:      -3.9     36.522     37.275
REMARK  1 active torsions:
REMARK  status: ('A' for Active; 'I' for Inactive)
REMARK       I    between atoms: N_4  and  C_9 
REMARK    1  A    between atoms: C_5  and  C_9 
ROOT
HETATM    1  N   UNK N   1      47.095  17.784  14.231  0.00  0.00    -0.374 N 
ATOM      2  HN  UNK N   1      46.105  17.670  14.449  1.00  0.00     0.164 HD
HETATM    3  C   UNK N   1      49.275  16.812  13.938  0.00  0.00     0.047 A 
HETATM    4  C   UNK N   1      49.774  18.098  13.642  0.00  0.00     0.020 A 
HETATM    5  C   UNK N   1      47.900  16.690  14.234  0.00  0.00     0.104 A 
HETATM    6  C   UNK N   1      48.918  19.202  13.647  0.00  0.00     0.018 A 
HETATM    7  C   UNK N   1      47.569  19.023  13.947  0.00  0.00     0.087 A 
ENDROOT
BRANCH   3   8
HETATM    8  C   UNK N   1      50.199  15.630  13.932  0.00  0.00     0.250 C 
HETATM    9  O   UNK N   1      50.423  15.052  12.879  0.00  0.00    -0.268 OA
HETATM   10  N   UNK N   1      50.800  15.178  15.066  0.00  0.00    -0.366 N 
HETATM   11  H   UNK N   1      50.654  15.616  15.981  0.00  0.00     0.159 HD
HETATM   12  H   UNK N   1      51.430  14.364  15.025  0.00  0.00     0.159 HD
ENDBRANCH   3   8
TORSDOF 1
ENDMDL
MODEL 5
REMARK VINA RESULT:      -3.9      2.679      4.086
REMARK  1 active torsions:
REMARK  status: ('A' for Active; 'I' for Inactive)
REMARK       I    between atoms: N_4  and  C_9 
REMARK    1  A    between atoms: C_5  and  C_9 
ROOT
HETATM    1  N   UNK N   1      76.965  29.958  -7.563  0.00  0.00    -0.374 N 
ATOM      2  HN  UNK N   1      76.908  30.030  -8.578  1.00  0.00     0.164 HD
HETATM    3  C   UNK N   1      77.211  28.598  -5.594  0.00  0.00     0.047 A 
HETATM    4  C   UNK N   1      77.118  29.768  -4.812  0.00  0.00     0.020 A 
HETATM    5  C   UNK N   1      77.128  28.734  -6.997  0.00  0.00     0.104 A 
HETATM    6  C   UNK N   1      76.950  31.012  -5.427  0.00  0.00     0.018 A 
HETATM    7  C   UNK N   1      76.875  31.087  -6.815  0.00  0.00     0.087 A 
ENDROOT
BRANCH   3   8
HETATM    8  C   UNK N   1      77.389  27.265  -4.929  0.00  0.00     0.250 C 
HETATM    9  O   UNK N   1      77.177  27.163  -3.730  0.00  0.00    -0.268 OA
HETATM   10  N   UNK N   1      77.779  26.160  -5.620  0.00  0.00    -0.366 N 
HETATM   11  H   UNK N   1      77.973  26.177  -6.626  0.00  0.00     0.159 HD
HETATM   12  H   UNK N   1      77.890  25.260  -5.131  0.00  0.00     0.159 HD
ENDBRANCH   3   8
TORSDOF 1
ENDMDL
MODEL 6
REMARK VINA RESULT:      -3.9     14.557     15.462
REMARK  1 active torsions:
REMARK  status: ('A' for Active; 'I' for Inactive)
REMARK       I    between atoms: N_4  and  C_9 
REMARK    1  A    between atoms: C_5  and  C_9 
ROOT
HETATM    1  N   UNK N   1      82.572  28.929   7.636  0.00  0.00    -0.374 N 
ATOM      2  HN  UNK N   1      82.627  29.881   7.275  1.00  0.00     0.164 HD
HETATM    3  C   UNK N   1      81.521  26.766   7.620  0.00  0.00     0.047 A 
HETATM    4  C   UNK N   1      82.428  26.352   8.618  0.00  0.00     0.020 A 
HETATM    5  C   UNK N   1      81.624  28.090   7.143  0.00  0.00     0.104 A 
HETATM    6  C   UNK N   1      83.391  27.240   9.103  0.00  0.00     0.018 A 
HETATM    7  C   UNK N   1      83.448  28.536   8.595  0.00  0.00     0.087 A 
ENDROOT
BRANCH   3   8
HETATM    8  C   UNK N   1      80.487  25.808   7.103  0.00  0.00     0.250 C 
HETATM    9  O   UNK N   1      80.787  24.635   6.946  0.00  0.00    -0.268 OA
HETATM   10  N   UNK N   1      79.221  26.206   6.804  0.00  0.00    -0.366 N 
HETATM   11  H   UNK N   1      78.906  27.175   6.913  0.00  0.00     0.159 HD
HETATM   12  H   UNK N   1      78.537  25.521   6.452  0.00  0.00     0.159 HD
ENDBRANCH   3   8
TORSDOF 1
ENDMDL
MODEL 7
REMARK VINA RESULT:      -3.8      2.284      3.989
REMARK  1 active torsions:
REMARK  status: ('A' for Active; 'I' for Inactive)
REMARK       I    between atoms: N_4  and  C_9 
REMARK    1  A    between atoms: C_5  and  C_9 
ROOT
HETATM    1  N   UNK N   1      77.371  33.722  -7.480  0.00  0.00    -0.374 N 
ATOM      2  HN  UNK N   1      76.973  34.607  -7.166  1.00  0.00     0.164 HD
HETATM    3  C   UNK N   1      77.407  31.319  -7.387  0.00  0.00     0.047 A 
HETATM    4  C   UNK N   1      78.451  31.329  -8.335  0.00  0.00     0.020 A 
HETATM    5  C   UNK N   1      76.879  32.562  -6.973  0.00  0.00     0.104 A 
HETATM    6  C   UNK N   1      78.933  32.540  -8.836  0.00  0.00     0.018 A 
HETATM    7  C   UNK N   1      78.375  33.737  -8.392  0.00  0.00     0.087 A 
ENDROOT
BRANCH   3   8
HETATM    8  C   UNK N   1      76.893  30.015  -6.850  0.00  0.00     0.250 C 
HETATM    9  O   UNK N   1      76.773  29.873  -5.642  0.00  0.00    -0.268 OA
HETATM   10  N   UNK N   1      76.556  28.981  -7.667  0.00  0.00    -0.366 N 
HETATM   11  H   UNK N   1      76.634  29.035  -8.687  0.00  0.00     0.159 HD
HETATM   12  H   UNK N   1      76.206  28.100  -7.263  0.00  0.00     0.159 HD
ENDBRANCH   3   8
TORSDOF 1
ENDMDL
MODEL 8
REMARK VINA RESULT:      -3.7     10.849     11.753
REMARK  1 active torsions:
REMARK  status: ('A' for Active; 'I' for Inactive)
REMARK       I    between atoms: N_4  and  C_9 
REMARK    1  A    between atoms: C_5  and  C_9 
ROOT
HETATM    1  N   UNK N   1      80.746  30.559   3.515  0.00  0.00    -0.374 N 
ATOM      2  HN  UNK N   1      81.511  31.152   3.192  1.00  0.00     0.164 HD
HETATM    3  C   UNK N   1      79.933  28.859   5.009  0.00  0.00     0.047 A 
HETATM    4  C   UNK N   1      78.672  28.958   4.386  0.00  0.00     0.020 A 
HETATM    5  C   UNK N   1      80.970  29.693   4.537  0.00  0.00     0.104 A 
HETATM    6  C   UNK N   1      78.476  29.860   3.337  0.00  0.00     0.018 A 
HETATM    7  C   UNK N   1      79.535  30.659   2.912  0.00  0.00     0.087 A 
ENDROOT
BRANCH   3   8
HETATM    8  C   UNK N   1      80.139  27.887   6.134  0.00  0.00     0.250 C 
HETATM    9  O   UNK N   1      80.942  28.155   7.015  0.00  0.00    -0.268 OA
HETATM   10  N   UNK N   1      79.457  26.712   6.207  0.00  0.00    -0.366 N 
HETATM   11  H   UNK N   1      78.770  26.427   5.502  0.00  0.00     0.159 HD
HETATM   12  H   UNK N   1      79.623  26.069   6.995  0.00  0.00     0.159 HD
ENDBRANCH   3   8
TORSDOF 1
ENDMDL
MODEL 9
REMARK VINA RESULT:      -3.7     12.729     13.640
REMARK  1 active torsions:
REMARK  status: ('A' for Active; 'I' for Inactive)
REMARK       I    between atoms: N_4  and  C_9 
REMARK    1  A    between atoms: C_5  and  C_9 
ROOT
HETATM    1  N   UNK N   1      79.616  28.527   5.947  0.00  0.00    -0.374 N 
ATOM      2  HN  UNK N   1      78.933  29.146   6.384  1.00  0.00     0.164 HD
HETATM    3  C   UNK N   1      80.893  26.490   5.993  0.00  0.00     0.047 A 
HETATM    4  C   UNK N   1      81.465  26.857   4.758  0.00  0.00     0.020 A 
HETATM    5  C   UNK N   1      79.951  27.369   6.571  0.00  0.00     0.104 A 
HETATM    6  C   UNK N   1      81.098  28.056   4.143  0.00  0.00     0.018 A 
HETATM    7  C   UNK N   1      80.164  28.885   4.758  0.00  0.00     0.087 A 
ENDROOT
BRANCH   3   8
HETATM    8  C   UNK N   1      81.292  25.201   6.651  0.00  0.00     0.250 C 
HETATM    9  O   UNK N   1      82.236  24.569   6.202  0.00  0.00    -0.268 OA
HETATM   10  N   UNK N   1      80.635  24.711   7.737  0.00  0.00    -0.366 N 
HETATM   11  H   UNK N   1      79.836  25.191   8.162  0.00  0.00     0.159 HD
HETATM   12  H   UNK N   1      80.937  23.824   8.164  0.00  0.00     0.159 HD
ENDBRANCH   3   8
TORSDOF 1
ENDMDL
