53340666
  -OEChem-10062404243D

 59 61  0     0  0  0  0  0  0999 V2000
   -7.5878    1.8032    0.3497 O   0  0  0  0  0  0  0  0  0  0  0  0
   -1.6417   -2.4916    2.7484 O   0  0  0  0  0  0  0  0  0  0  0  0
   -6.3099    4.0977   -0.2772 O   0  0  0  0  0  0  0  0  0  0  0  0
   -2.1573   -2.8853    0.5212 N   0  0  0  0  0  0  0  0  0  0  0  0
    3.3218    0.2261    0.0379 N   0  0  0  0  0  0  0  0  0  0  0  0
   -6.4173    3.0501   -1.2017 N   0  0  0  0  0  0  0  0  0  0  0  0
    1.6639   -1.3665   -0.4316 N   0  0  0  0  0  0  0  0  0  0  0  0
    1.5979   -0.0744    1.6012 N   0  0  0  0  0  0  0  0  0  0  0  0
   -4.7059   -1.8353   -0.5463 C   0  0  0  0  0  0  0  0  0  0  0  0
   -5.9035   -0.8832   -0.5313 C   0  0  0  0  0  0  0  0  0  0  0  0
   -4.5746   -2.5854    0.7794 C   0  0  0  0  0  0  0  0  0  0  0  0
   -6.0131   -0.1094   -1.8485 C   0  0  0  0  0  0  0  0  0  0  0  0
   -3.4049   -3.5616    0.7508 C   0  0  0  0  0  0  0  0  0  0  0  0
   -7.1816    0.8750   -1.8497 C   0  0  0  0  0  0  0  0  0  0  0  0
   -7.0904    1.9347   -0.7653 C   0  0  0  0  0  0  0  0  0  0  0  0
   -1.3661   -2.3984    1.5552 C   0  0  0  0  0  0  0  0  0  0  0  0
   -0.1187   -1.7003    1.1508 C   0  0  0  0  0  0  0  0  0  0  0  0
    2.1359   -0.4376    0.4214 C   0  0  0  0  0  0  0  0  0  0  0  0
    4.3265   -0.4387   -0.7922 C   0  0  0  0  0  0  0  0  0  0  0  0
    3.5881    1.6025    0.4566 C   0  0  0  0  0  0  0  0  0  0  0  0
    0.5304   -1.9810   -0.0341 C   0  0  0  0  0  0  0  0  0  0  0  0
    0.4665   -0.7284    1.9364 C   0  0  0  0  0  0  0  0  0  0  0  0
    4.6704    0.0961   -2.0337 C   0  0  0  0  0  0  0  0  0  0  0  0
    4.9017    2.0340    0.6401 C   0  0  0  0  0  0  0  0  0  0  0  0
    4.9404   -1.6075   -0.3422 C   0  0  0  0  0  0  0  0  0  0  0  0
    2.5281    2.4830    0.6724 C   0  0  0  0  0  0  0  0  0  0  0  0
    5.6283   -0.5379   -2.8253 C   0  0  0  0  0  0  0  0  0  0  0  0
    5.1555    3.3463    1.0395 C   0  0  0  0  0  0  0  0  0  0  0  0
    5.8983   -2.2415   -1.1335 C   0  0  0  0  0  0  0  0  0  0  0  0
    2.7817    3.7952    1.0717 C   0  0  0  0  0  0  0  0  0  0  0  0
    6.2421   -1.7067   -2.3752 C   0  0  0  0  0  0  0  0  0  0  0  0
    4.0954    4.2268    1.2553 C   0  0  0  0  0  0  0  0  0  0  0  0
   -4.8200   -2.5533   -1.3676 H   0  0  0  0  0  0  0  0  0  0  0  0
   -3.7967   -1.2562   -0.7463 H   0  0  0  0  0  0  0  0  0  0  0  0
   -6.8265   -1.4497   -0.3589 H   0  0  0  0  0  0  0  0  0  0  0  0
   -5.7865   -0.1880    0.3075 H   0  0  0  0  0  0  0  0  0  0  0  0
   -4.4405   -1.8660    1.5965 H   0  0  0  0  0  0  0  0  0  0  0  0
   -5.4977   -3.1406    0.9839 H   0  0  0  0  0  0  0  0  0  0  0  0
   -5.0792    0.4378   -2.0263 H   0  0  0  0  0  0  0  0  0  0  0  0
   -6.1387   -0.8135   -2.6795 H   0  0  0  0  0  0  0  0  0  0  0  0
   -3.5335   -4.2956   -0.0517 H   0  0  0  0  0  0  0  0  0  0  0  0
   -3.3532   -4.1054    1.7002 H   0  0  0  0  0  0  0  0  0  0  0  0
   -8.1269    0.3371   -1.7088 H   0  0  0  0  0  0  0  0  0  0  0  0
   -7.2464    1.3616   -2.8305 H   0  0  0  0  0  0  0  0  0  0  0  0
   -1.8889   -2.7322   -0.4452 H   0  0  0  0  0  0  0  0  0  0  0  0
   -6.1055    3.2368   -2.1478 H   0  0  0  0  0  0  0  0  0  0  0  0
    0.1844   -2.7410   -0.7263 H   0  0  0  0  0  0  0  0  0  0  0  0
    0.0376   -0.4271    2.8869 H   0  0  0  0  0  0  0  0  0  0  0  0
    4.1952    1.0015   -2.4024 H   0  0  0  0  0  0  0  0  0  0  0  0
    5.7513    1.3713    0.5030 H   0  0  0  0  0  0  0  0  0  0  0  0
    4.6862   -2.0327    0.6253 H   0  0  0  0  0  0  0  0  0  0  0  0
    1.4941    2.2000    0.4980 H   0  0  0  0  0  0  0  0  0  0  0  0
    5.8947   -0.1225   -3.7927 H   0  0  0  0  0  0  0  0  0  0  0  0
    6.1780    3.6815    1.1868 H   0  0  0  0  0  0  0  0  0  0  0  0
    6.3772   -3.1509   -0.7827 H   0  0  0  0  0  0  0  0  0  0  0  0
    1.9571    4.4841    1.2302 H   0  0  0  0  0  0  0  0  0  0  0  0
    6.9878   -2.2004   -2.9914 H   0  0  0  0  0  0  0  0  0  0  0  0
    4.2929    5.2489    1.5650 H   0  0  0  0  0  0  0  0  0  0  0  0
   -5.4318    3.9089    0.0950 H   0  0  0  0  0  0  0  0  0  0  0  0
  1 15  2  0  0  0  0
  2 16  2  0  0  0  0
  3  6  1  0  0  0  0
  3 59  1  0  0  0  0
  4 13  1  0  0  0  0
  4 16  1  0  0  0  0
  4 45  1  0  0  0  0
  5 18  1  0  0  0  0
  5 19  1  0  0  0  0
  5 20  1  0  0  0  0
  6 15  1  0  0  0  0
  6 46  1  0  0  0  0
  7 18  2  0  0  0  0
  7 21  1  0  0  0  0
  8 18  1  0  0  0  0
  8 22  2  0  0  0  0
  9 10  1  0  0  0  0
  9 11  1  0  0  0  0
  9 33  1  0  0  0  0
  9 34  1  0  0  0  0
 10 12  1  0  0  0  0
 10 35  1  0  0  0  0
 10 36  1  0  0  0  0
 11 13  1  0  0  0  0
 11 37  1  0  0  0  0
 11 38  1  0  0  0  0
 12 14  1  0  0  0  0
 12 39  1  0  0  0  0
 12 40  1  0  0  0  0
 13 41  1  0  0  0  0
 13 42  1  0  0  0  0
 14 15  1  0  0  0  0
 14 43  1  0  0  0  0
 14 44  1  0  0  0  0
 16 17  1  0  0  0  0
 17 21  2  0  0  0  0
 17 22  1  0  0  0  0
 19 23  2  0  0  0  0
 19 25  1  0  0  0  0
 20 24  2  0  0  0  0
 20 26  1  0  0  0  0
 21 47  1  0  0  0  0
 22 48  1  0  0  0  0
 23 27  1  0  0  0  0
 23 49  1  0  0  0  0
 24 28  1  0  0  0  0
 24 50  1  0  0  0  0
 25 29  2  0  0  0  0
 25 51  1  0  0  0  0
 26 30  2  0  0  0  0
 26 52  1  0  0  0  0
 27 31  2  0  0  0  0
 27 53  1  0  0  0  0
 28 32  2  0  0  0  0
 28 54  1  0  0  0  0
 29 31  1  0  0  0  0
 29 55  1  0  0  0  0
 30 32  1  0  0  0  0
 30 56  1  0  0  0  0
 31 57  1  0  0  0  0
 32 58  1  0  0  0  0
M  END
> <PUBCHEM_COMPOUND_CID>
53340666

> <PUBCHEM_CONFORMER_RMSD>
1.2

> <PUBCHEM_CONFORMER_DIVERSEORDER>
3
38
22
41
39
73
70
45
47
13
76
50
31
33
68
18
11
4
67
26
1
42
25
21
32
65
49
14
27
10
7
59
51
57
36
12
19
37
28
75
56
9
5
40
24
35
46
8
2
55
17
48
66
16
54
44
34
43
53
15
29
71
72
6
62
52
23
20
60
74
58
64
30
69
61
63

> <PUBCHEM_MMFF94_PARTIAL_CHARGES>
43
1 -0.57
13 0.3
14 0.06
15 0.57
16 0.54
17 0.09
18 0.72
19 0.1
2 -0.57
20 0.1
21 0.16
22 0.16
23 -0.15
24 -0.15
25 -0.15
26 -0.15
27 -0.15
28 -0.15
29 -0.15
3 -0.44
30 -0.15
31 -0.15
32 -0.15
4 -0.73
45 0.37
46 0.37
47 0.15
48 0.15
49 0.15
5 -0.3
50 0.15
51 0.15
52 0.15
53 0.15
54 0.15
55 0.15
56 0.15
57 0.15
58 0.15
59 0.4
6 -0.39
7 -0.62
8 -0.62

> <PUBCHEM_EFFECTIVE_ROTOR_COUNT>
13

> <PUBCHEM_PHARMACOPHORE_FEATURES>
10
1 1 acceptor
1 2 acceptor
1 4 donor
1 6 donor
1 8 acceptor
4 5 7 8 18 cation
5 9 10 11 12 14 hydrophobe
6 19 23 25 27 29 31 rings
6 20 24 26 28 30 32 rings
6 7 8 17 18 21 22 rings

> <PUBCHEM_HEAVY_ATOM_COUNT>
32

> <PUBCHEM_ATOM_DEF_STEREO_COUNT>
0

> <PUBCHEM_ATOM_UDEF_STEREO_COUNT>
0

> <PUBCHEM_BOND_DEF_STEREO_COUNT>
0

> <PUBCHEM_BOND_UDEF_STEREO_COUNT>
0

> <PUBCHEM_ISOTOPIC_ATOM_COUNT>
0

> <PUBCHEM_COMPONENT_COUNT>
1

> <PUBCHEM_CACTVS_TAUTO_COUNT>
8

> <PUBCHEM_CONFORMER_ID>
032DE9FA00000003

> <PUBCHEM_MMFF94_ENERGY>
96.171

> <PUBCHEM_FEATURE_SELFOVERLAP>
50.746

> <PUBCHEM_SHAPE_FINGERPRINT>
10554248 39 17489320714584065551
10864689 126 18263076626880305205
11103572 95 8430325645650976573
11475781 23 18408879668119715842
14347329 18 17240484723284605503
15297060 5 17749117668417610287
15530120 55 17487879306912299549
19304671 126 18342167887090049865
21223535 225 18409440414686290879
21859007 373 18261946453390916286
23559900 14 18056496152001257130
23569914 152 17983581801417095790
2747138 104 17823989042573028915
42767 28 18341608188479911745
60123966 16 18201441441068954582
6376802 90 18120936363303738042
6712543 237 8286208271172990871

> <PUBCHEM_SHAPE_MULTIPOLES>
616.03
21.22
5.34
2.27
32.84
4.98
0.6
10.84
13.73
1.06
-1.82
-1.18
-0.9
6.67

> <PUBCHEM_SHAPE_SELFOVERLAP>
1295.951

> <PUBCHEM_SHAPE_VOLUME>
341.7

> <PUBCHEM_COORDINATE_TYPE>
2
5
10

$$$$
