4261
 OpenBabel10062414423D

 48 50  0  0  0  0  0  0  0  0999 V2000
    4.1752   -0.5800    0.2858 O   0  0  0  0  0  0  0  0  0  0  0  0
   -4.3142   -1.5495   -1.5099 O   0  0  0  0  0  0  0  0  0  0  0  0
    2.8486   -1.1359    2.0763 O   0  0  0  0  0  0  0  0  0  0  0  0
    2.6731   -2.2294    0.0378 N   0  0  0  0  0  0  0  0  0  0  0  0
   -3.9270    0.1645    0.0450 N   0  0  0  0  0  0  0  0  0  0  0  0
   -4.2803    2.4606    1.6826 N   0  0  0  0  0  0  0  0  0  0  0  0
    6.4161    2.9031   -1.2673 N   0  0  0  0  0  0  0  0  0  0  0  0
    0.2576   -2.5839    0.1061 C   0  0  0  0  0  0  0  0  0  0  0  0
    1.6183   -3.1531    0.3867 C   0  0  0  0  0  0  0  0  0  0  0  0
   -2.2626   -1.5325   -0.4136 C   0  0  0  0  0  0  0  0  0  0  0  0
   -0.4027   -1.8614    1.0929 C   0  0  0  0  0  0  0  0  0  0  0  0
   -0.3287   -2.7864   -1.1377 C   0  0  0  0  0  0  0  0  0  0  0  0
   -1.6674   -1.3338    0.8322 C   0  0  0  0  0  0  0  0  0  0  0  0
   -1.5934   -2.2587   -1.3985 C   0  0  0  0  0  0  0  0  0  0  0  0
   -3.5805   -0.9806   -0.6856 C   0  0  0  0  0  0  0  0  0  0  0  0
   -5.1374    0.8994    0.0108 C   0  0  0  0  0  0  0  0  0  0  0  0
   -5.3015    2.0168    0.8130 C   0  0  0  0  0  0  0  0  0  0  0  0
   -6.1425    0.4700   -0.8412 C   0  0  0  0  0  0  0  0  0  0  0  0
    3.1973   -1.3006    0.9119 C   0  0  0  0  0  0  0  0  0  0  0  0
    4.8126    0.4279    1.0785 C   0  0  0  0  0  0  0  0  0  0  0  0
   -6.5027    2.7239    0.7624 C   0  0  0  0  0  0  0  0  0  0  0  0
    5.8525    1.1200    0.2472 C   0  0  0  0  0  0  0  0  0  0  0  0
   -7.3437    1.1772   -0.8921 C   0  0  0  0  0  0  0  0  0  0  0  0
   -7.5238    2.3042   -0.0902 C   0  0  0  0  0  0  0  0  0  0  0  0
    7.1535    0.6499    0.2135 C   0  0  0  0  0  0  0  0  0  0  0  0
    5.5286    2.2344   -0.4975 C   0  0  0  0  0  0  0  0  0  0  0  0
    8.0953    1.3112   -0.5669 C   0  0  0  0  0  0  0  0  0  0  0  0
    7.6798    2.4227   -1.2821 C   0  0  0  0  0  0  0  0  0  0  0  0
    1.7084   -3.4236    1.4455 H   0  0  0  0  0  0  0  0  0  0  0  0
    1.7797   -4.0708   -0.1903 H   0  0  0  0  0  0  0  0  0  0  0  0
    0.0457   -1.7095    2.0706 H   0  0  0  0  0  0  0  0  0  0  0  0
    0.1850   -3.3481   -1.9129 H   0  0  0  0  0  0  0  0  0  0  0  0
   -2.1646   -0.8101    1.6433 H   0  0  0  0  0  0  0  0  0  0  0  0
   -2.0368   -2.4202   -2.3777 H   0  0  0  0  0  0  0  0  0  0  0  0
    3.0408   -2.2555   -0.9085 H   0  0  0  0  0  0  0  0  0  0  0  0
   -3.2186    0.5608    0.6511 H   0  0  0  0  0  0  0  0  0  0  0  0
   -6.0897   -0.3874   -1.4940 H   0  0  0  0  0  0  0  0  0  0  0  0
    4.0655    1.1513    1.4281 H   0  0  0  0  0  0  0  0  0  0  0  0
    5.2777   -0.0326    1.9590 H   0  0  0  0  0  0  0  0  0  0  0  0
   -6.6567    3.6041    1.3816 H   0  0  0  0  0  0  0  0  0  0  0  0
   -8.1399    0.8516   -1.5555 H   0  0  0  0  0  0  0  0  0  0  0  0
   -8.4591    2.8548   -0.1299 H   0  0  0  0  0  0  0  0  0  0  0  0
    7.4487   -0.2260    0.7839 H   0  0  0  0  0  0  0  0  0  0  0  0
   -3.4080    1.9636    1.7792 H   0  0  0  0  0  0  0  0  0  0  0  0
   -4.4409    3.2794    2.2554 H   0  0  0  0  0  0  0  0  0  0  0  0
    4.5225    2.6412   -0.5070 H   0  0  0  0  0  0  0  0  0  0  0  0
    9.1221    0.9670   -0.6144 H   0  0  0  0  0  0  0  0  0  0  0  0
    8.3758    2.9736   -1.9060 H   0  0  0  0  0  0  0  0  0  0  0  0
  1 19  1  0  0  0  0
  1 20  1  0  0  0  0
  2 15  2  0  0  0  0
  3 19  2  0  0  0  0
  4  9  1  0  0  0  0
  4 19  1  0  0  0  0
  4 35  1  0  0  0  0
  5 15  1  0  0  0  0
  5 16  1  0  0  0  0
  5 36  1  0  0  0  0
  6 17  1  0  0  0  0
  6 44  1  0  0  0  0
  6 45  1  0  0  0  0
  7 26  1  0  0  0  0
  7 28  2  0  0  0  0
  8  9  1  0  0  0  0
  8 11  2  0  0  0  0
  8 12  1  0  0  0  0
  9 29  1  0  0  0  0
  9 30  1  0  0  0  0
 10 13  2  0  0  0  0
 10 14  1  0  0  0  0
 10 15  1  0  0  0  0
 11 13  1  0  0  0  0
 11 31  1  0  0  0  0
 12 14  2  0  0  0  0
 12 32  1  0  0  0  0
 13 33  1  0  0  0  0
 14 34  1  0  0  0  0
 16 17  1  0  0  0  0
 16 18  2  0  0  0  0
 17 21  2  0  0  0  0
 18 23  1  0  0  0  0
 18 37  1  0  0  0  0
 20 22  1  0  0  0  0
 20 38  1  0  0  0  0
 20 39  1  0  0  0  0
 21 24  1  0  0  0  0
 21 40  1  0  0  0  0
 22 25  1  0  0  0  0
 22 26  2  0  0  0  0
 23 24  2  0  0  0  0
 23 41  1  0  0  0  0
 24 42  1  0  0  0  0
 25 27  2  0  0  0  0
 25 43  1  0  0  0  0
 26 46  1  0  0  0  0
 27 28  1  0  0  0  0
 27 47  1  0  0  0  0
 28 48  1  0  0  0  0
M  END
>  <PUBCHEM_COMPOUND_CID>
4261

>  <PUBCHEM_CONFORMER_RMSD>
1

>  <PUBCHEM_CONFORMER_DIVERSEORDER>
1
234
184
300
59
93
333
36
319
235
130
403
343
57
149
142
280
314
80
103
228
387
363
352
351
334
91
89
109
241
374
404
259
209
433
27
301
195
190
40
173
365
395
34
281
384
117
303
46
87
108
264
5
276
335
54
176
289
293
15
358
137
164
398
62
250
123
110
113
422
377
148
399
95
44
414
360
249
431
23
214
349
169
364
295
345
112
270
239
185
321
415
248
88
311
97
350
240
262
212
49
430
408
14
346
39
225
263
288
313
51
327
283
298
425
401
211
122
421
252
19
229
420
200
406
410
194
177
383
308
56
223
309
362
171
245
61
152
325
140
306
354
312
33
134
64
326
138
99
419
178
409
25
107
268
429
188
265
124
144
369
24
359
423
118
357
70
198
79
202
424
247
189
50
302
426
322
330
329
47
186
307
254
133
131
155
331
416
332
344
317
217
394
153
210
26
104
411
402
258
405
127
43
318
141
274
337
413
69
407
90
151
428
30
260
92
222
266
174
52
287
267
417
4
233
41
341
136
275
242
159
172
376
191
163
154
208
192
273
432
418
8
20
160
63
73
320
120
75
347
66
22
255
286
60
165
412
29
292
183
146
272
342
18
316
114
9
224
32
16
371
98
310
182
101
253
129
230
434
261
121
162
7
68
201
236
299
85
168
204
368
187
304
290
21
340
355
3
338
391
180
125
119
196
336
328
348
220
243
361
28
37
393
305
392
227
390
356
6
48
139
400
205
86
199
74
380
78
244
279
271
257
147
175
84
45
238
67
397
381
385
379
42
2
157
94
76
11
427
339
158
167
315
58
353
17
96
150
145
111
291
156
38
213
278
294
246
284
105
31
207
226
206
116
367
366
71
323
82
296
83
221
55
10
370
197
203
232
215
53
388
143
375
324
35
106
282
396
102
219
166
135
269
218
373
237
372
181
193
132
128
386
115
65
389
13
216
81
378
382
170
277
256
297
179
12
285
161
100
72
251
231
77
126

>  <PUBCHEM_MMFF94_PARTIAL_CHARGES>
44
1 -0.43
10 0.09
11 -0.15
12 -0.15
13 -0.15
14 -0.15
15 0.54
16 0.12
17 0.1
18 -0.15
19 0.78
2 -0.57
20 0.42
21 -0.15
22 -0.14
23 -0.15
24 -0.15
25 -0.15
26 0.16
27 -0.15
28 0.16
3 -0.57
31 0.15
32 0.15
33 0.15
34 0.15
35 0.37
36 0.37
37 0.15
4 -0.73
40 0.15
41 0.15
42 0.15
43 0.15
44 0.4
45 0.4
46 0.15
47 0.15
48 0.15
5 -0.55
6 -0.9
7 -0.62
8 -0.14
9 0.44

>  <PUBCHEM_EFFECTIVE_ROTOR_COUNT>
9

>  <PUBCHEM_PHARMACOPHORE_FEATURES>
10
1 2 acceptor
1 3 acceptor
1 4 donor
1 5 donor
1 6 cation
1 6 donor
1 7 acceptor
6 16 17 18 21 23 24 rings
6 7 22 25 26 27 28 rings
6 8 10 11 12 13 14 rings

>  <PUBCHEM_HEAVY_ATOM_COUNT>
28

>  <PUBCHEM_ATOM_DEF_STEREO_COUNT>
0

>  <PUBCHEM_ATOM_UDEF_STEREO_COUNT>
0

>  <PUBCHEM_BOND_DEF_STEREO_COUNT>
0

>  <PUBCHEM_BOND_UDEF_STEREO_COUNT>
0

>  <PUBCHEM_ISOTOPIC_ATOM_COUNT>
0

>  <PUBCHEM_COMPONENT_COUNT>
1

>  <PUBCHEM_CACTVS_TAUTO_COUNT>
4

>  <PUBCHEM_CONFORMER_ID>
000010A500000001

>  <PUBCHEM_MMFF94_ENERGY>
88.6239

>  <PUBCHEM_FEATURE_SELFOVERLAP>
50.749

>  <PUBCHEM_SHAPE_FINGERPRINT>
10533779 1 18335407007113177268
11273773 42 18411696595614518399
1200032 147 18260547818997977954
12013929 112 18341346518119305422
12895837 130 18412262861388427447
13248334 5 18121216481166248122
14150022 121 17824272707381583099
14251764 75 18333449859213949178
14394314 77 18261394472299380917
14428016 204 18040156218751463365
14617042 71 18338238159935185441
14664723 55 18411145748932080860
14840074 17 18259981574098018269
14931854 50 17704356558898720704
15064981 113 17417549003003144764
15064981 194 18045226183037496870
15198563 99 17628615747407020359
15510800 12 11527655401762126372
15685185 35 18335705000090548141
15840311 113 18335423405297378143
16120349 67 18342464763677176194
16992752 21 18129089195681007455
17899979 129 18340773650480216102
190975 80 8862941668021826854
19438510 23 18186521029477804818
2026 5 10375867472860548797
20691028 202 18262517134596888644
21298829 104 18408886247862251812
21307412 95 13758067532939655799
21585482 111 18189332381673261197
23569943 247 9871745806967814053
270888 7 18408040732305637034
2748736 6 18409443700420817328
2838139 119 18200590414779596910
397830 11 17968386680197874379
4058900 60 18408885135708828570
4169191 19 18335414639554398797
4258327 124 18412260632637841867
4366758 26 18409455777659020156
445580 204 18342175579228524240
508180 173 17988923426741735824
54583773 228 18412254044685570061
5718773 13 10159700192192889998
57634706 229 17968950807019696834
57724786 102 18260540113927252114
5911458 16 18409167718580937628
59682541 52 16774083947520254086
6673363 416 18126286586825746159
7970288 3 9295298231106556452
9689198 14 18260553324660689282

>  <PUBCHEM_SHAPE_MULTIPOLES>
538.69
25
4.07
1.4
14.39
0.32
-0.12
-30.99
4.79
0.17
0.36
0.07
0.04
-3.77

>  <PUBCHEM_SHAPE_SELFOVERLAP>
1160.56

>  <PUBCHEM_SHAPE_VOLUME>
293

>  <PUBCHEM_COORDINATE_TYPE>
2
5
10

$$$$
9865515
 OpenBabel10062414423D

 50 53  0  0  0  0  0  0  0  0999 V2000
   -4.6547   -1.6714   -1.5299 O   0  0  0  0  0  0  0  0  0  0  0  0
    1.9271    0.9558   -0.4408 N   0  0  0  0  0  0  0  0  0  0  0  0
   -4.9744   -0.0563    0.1417 N   0  0  0  0  0  0  0  0  0  0  0  0
    4.1828    0.4157   -0.0846 N   0  0  0  0  0  0  0  0  0  0  0  0
    3.5341    2.6352   -0.7628 N   0  0  0  0  0  0  0  0  0  0  0  0
   -6.2101    1.7185    1.9863 N   0  0  0  0  0  0  0  0  0  0  0  0
    8.6784   -1.0524    0.0764 N   0  0  0  0  0  0  0  0  0  0  0  0
    0.0054   -0.5063   -0.2627 C   0  0  0  0  0  0  0  0  0  0  0  0
    1.4835   -0.3807   -0.1087 C   0  0  0  0  0  0  0  0  0  0  0  0
   -2.7592   -0.7435   -0.5514 C   0  0  0  0  0  0  0  0  0  0  0  0
   -0.8346   -0.2307    0.8161 C   0  0  0  0  0  0  0  0  0  0  0  0
   -0.5369   -0.9005   -1.4859 C   0  0  0  0  0  0  0  0  0  0  0  0
   -2.2170   -0.3494    0.6719 C   0  0  0  0  0  0  0  0  0  0  0  0
   -1.9192   -1.0190   -1.6303 C   0  0  0  0  0  0  0  0  0  0  0  0
   -4.2006   -0.8653   -0.7020 C   0  0  0  0  0  0  0  0  0  0  0  0
   -6.3856    0.0221    0.2375 C   0  0  0  0  0  0  0  0  0  0  0  0
    3.2546    1.3473   -0.4292 C   0  0  0  0  0  0  0  0  0  0  0  0
   -6.9794    0.8891    1.1400 C   0  0  0  0  0  0  0  0  0  0  0  0
    5.4662    0.8314   -0.0835 C   0  0  0  0  0  0  0  0  0  0  0  0
   -7.1459   -0.7879   -0.5911 C   0  0  0  0  0  0  0  0  0  0  0  0
    6.4355   -0.1730    0.2842 C   0  0  0  0  0  0  0  0  0  0  0  0
   -8.3709    0.9481    1.2165 C   0  0  0  0  0  0  0  0  0  0  0  0
    5.8569    2.1150   -0.4061 C   0  0  0  0  0  0  0  0  0  0  0  0
   -8.5374   -0.7288   -0.5147 C   0  0  0  0  0  0  0  0  0  0  0  0
   -9.1499    0.1392    0.3891 C   0  0  0  0  0  0  0  0  0  0  0  0
    4.8376    2.9828   -0.7409 C   0  0  0  0  0  0  0  0  0  0  0  0
    6.1066   -1.2007    1.1617 C   0  0  0  0  0  0  0  0  0  0  0  0
    7.7236   -0.1443   -0.2262 C   0  0  0  0  0  0  0  0  0  0  0  0
    7.0618   -2.1539    1.4971 C   0  0  0  0  0  0  0  0  0  0  0  0
    8.3216   -2.0362    0.9323 C   0  0  0  0  0  0  0  0  0  0  0  0
    1.7707   -0.6282    0.9215 H   0  0  0  0  0  0  0  0  0  0  0  0
    1.9823   -1.1168   -0.7525 H   0  0  0  0  0  0  0  0  0  0  0  0
   -0.4236    0.0707    1.7761 H   0  0  0  0  0  0  0  0  0  0  0  0
    0.1068   -1.1152   -2.3349 H   0  0  0  0  0  0  0  0  0  0  0  0
   -2.8266   -0.1616    1.5508 H   0  0  0  0  0  0  0  0  0  0  0  0
   -2.3214   -1.3217   -2.5936 H   0  0  0  0  0  0  0  0  0  0  0  0
    1.2459    1.6625   -0.6949 H   0  0  0  0  0  0  0  0  0  0  0  0
   -4.4819    0.5968    0.7392 H   0  0  0  0  0  0  0  0  0  0  0  0
   -6.7578   -1.4857   -1.3166 H   0  0  0  0  0  0  0  0  0  0  0  0
   -8.8617    1.6201    1.9161 H   0  0  0  0  0  0  0  0  0  0  0  0
    6.8812    2.4644   -0.3886 H   0  0  0  0  0  0  0  0  0  0  0  0
   -9.1455   -1.3580   -1.1583 H   0  0  0  0  0  0  0  0  0  0  0  0
  -10.2334    0.1852    0.4485 H   0  0  0  0  0  0  0  0  0  0  0  0
    5.0464    4.0143   -1.0041 H   0  0  0  0  0  0  0  0  0  0  0  0
    5.1182   -1.2798    1.6074 H   0  0  0  0  0  0  0  0  0  0  0  0
    8.0591    0.6073   -0.9341 H   0  0  0  0  0  0  0  0  0  0  0  0
   -5.2020    1.6865    1.9924 H   0  0  0  0  0  0  0  0  0  0  0  0
   -6.6821    2.3352    2.6351 H   0  0  0  0  0  0  0  0  0  0  0  0
    6.8285   -2.9621    2.1806 H   0  0  0  0  0  0  0  0  0  0  0  0
    9.1024   -2.7537    1.1622 H   0  0  0  0  0  0  0  0  0  0  0  0
  1 15  2  0  0  0  0
  2  9  1  0  0  0  0
  2 17  1  0  0  0  0
  2 37  1  0  0  0  0
  3 15  1  0  0  0  0
  3 16  1  0  0  0  0
  3 38  1  0  0  0  0
  4 17  1  0  0  0  0
  4 19  2  0  0  0  0
  5 17  2  0  0  0  0
  5 26  1  0  0  0  0
  6 18  1  0  0  0  0
  6 47  1  0  0  0  0
  6 48  1  0  0  0  0
  7 28  1  0  0  0  0
  7 30  2  0  0  0  0
  8  9  1  0  0  0  0
  8 11  2  0  0  0  0
  8 12  1  0  0  0  0
  9 31  1  0  0  0  0
  9 32  1  0  0  0  0
 10 13  2  0  0  0  0
 10 14  1  0  0  0  0
 10 15  1  0  0  0  0
 11 13  1  0  0  0  0
 11 33  1  0  0  0  0
 12 14  2  0  0  0  0
 12 34  1  0  0  0  0
 13 35  1  0  0  0  0
 14 36  1  0  0  0  0
 16 18  1  0  0  0  0
 16 20  2  0  0  0  0
 18 22  2  0  0  0  0
 19 21  1  0  0  0  0
 19 23  1  0  0  0  0
 20 24  1  0  0  0  0
 20 39  1  0  0  0  0
 21 27  1  0  0  0  0
 21 28  2  0  0  0  0
 22 25  1  0  0  0  0
 22 40  1  0  0  0  0
 23 26  2  0  0  0  0
 23 41  1  0  0  0  0
 24 25  2  0  0  0  0
 24 42  1  0  0  0  0
 25 43  1  0  0  0  0
 26 44  1  0  0  0  0
 27 29  2  0  0  0  0
 27 45  1  0  0  0  0
 28 46  1  0  0  0  0
 29 30  1  0  0  0  0
 29 49  1  0  0  0  0
 30 50  1  0  0  0  0
M  END
>  <PUBCHEM_COMPOUND_CID>
9865515

>  <PUBCHEM_CONFORMER_RMSD>
1

>  <PUBCHEM_CONFORMER_DIVERSEORDER>
2
231
645
241
204
96
103
83
450
647
216
235
60
315
683
327
348
23
354
554
186
499
460
161
31
29
685
233
338
548
193
3
649
651
20
609
1
247
503
37
160
489
8
286
95
478
236
624
136
463
690
571
284
549
76
635
246
109
227
115
165
100
568
300
628
180
53
282
308
166
516
406
248
44
258
10
421
239
534
457
87
679
442
223
524
6
102
77
34
230
428
263
349
650
369
432
205
252
416
274
187
221
215
680
210
242
17
574
127
395
244
65
225
13
641
106
251
377
42
370
5
494
9
224
183
80
275
75
64
414
441
110
94
11
245
113
7
155
168
488
108
660
259
261
125
280
314
228
85
401
22
176
254
622
264
28
265
673
66
89
19
556
330
341
321
220
179
21
438
674
18

>  <PUBCHEM_MMFF94_PARTIAL_CHARGES>
47
1 -0.57
10 0.09
11 -0.15
12 -0.15
13 -0.15
14 -0.15
15 0.54
16 0.12
17 0.72
18 0.1
19 0.31
2 -0.87
20 -0.15
22 -0.15
23 -0.15
24 -0.15
25 -0.15
26 0.16
27 -0.15
28 0.16
29 -0.15
3 -0.55
30 0.16
33 0.15
34 0.15
35 0.15
36 0.15
37 0.4
38 0.37
39 0.15
4 -0.62
40 0.15
41 0.15
42 0.15
43 0.15
44 0.15
45 0.15
46 0.15
47 0.4
48 0.4
49 0.15
5 -0.62
50 0.15
6 -0.9
7 -0.62
8 -0.14
9 0.51

>  <PUBCHEM_EFFECTIVE_ROTOR_COUNT>
7

>  <PUBCHEM_PHARMACOPHORE_FEATURES>
12
1 1 acceptor
1 2 donor
1 3 donor
1 4 acceptor
1 6 cation
1 6 donor
1 7 acceptor
4 2 4 5 17 cation
6 16 18 20 22 24 25 rings
6 4 5 17 19 23 26 rings
6 7 21 27 28 29 30 rings
6 8 10 11 12 13 14 rings

>  <PUBCHEM_HEAVY_ATOM_COUNT>
30

>  <PUBCHEM_ATOM_DEF_STEREO_COUNT>
0

>  <PUBCHEM_ATOM_UDEF_STEREO_COUNT>
0

>  <PUBCHEM_BOND_DEF_STEREO_COUNT>
0

>  <PUBCHEM_BOND_UDEF_STEREO_COUNT>
0

>  <PUBCHEM_ISOTOPIC_ATOM_COUNT>
0

>  <PUBCHEM_COMPONENT_COUNT>
1

>  <PUBCHEM_CACTVS_TAUTO_COUNT>
6

>  <PUBCHEM_CONFORMER_ID>
0096892B00000002

>  <PUBCHEM_MMFF94_ENERGY>
113.2255

>  <PUBCHEM_FEATURE_SELFOVERLAP>
60.9

>  <PUBCHEM_SHAPE_FINGERPRINT>
10075450 59 17913206465087956046
10280341 67 16701184063283037153
10299344 5 18410853269779607194
10391435 84 12607397815156311501
11135926 11 17774995770379204055
11315181 36 8862944988194817231
11456790 92 18413673517210341857
11638347 137 17967817158970376187
11719270 70 17489873739110627318
12089408 11 18272651277318999949
12144603 126 18343021134257612772
12236239 1 18272930574568015070
12592606 108 18408601478635101266
12717326 25 17748835115958022891
13422730 43 17775564261188485639
13533116 47 18335133233534333340
13914758 101 18273218581799586202
14294032 229 17774175491075306376
14344974 52 14548728514175562249
14347424 109 18411418445201515892
14444916 359 16805323279803580915
15131766 46 17979073018133853764
15183329 4 17489035937173000377
15301273 46 16153423948317974951
15419008 145 18341329985545769649
15419008 47 16588298388994263140
1577012 14 18272088357024421508
16991971 28 13912327871507603047
19301679 30 18267583504037032166
20105231 36 15936410035092145146
20554085 129 16343982503288394382
20812841 46 18261111876657198680
21049683 271 8142082057036021079
21130935 74 18188492509170676571
21150785 3 8718826491860103923
21360443 126 11095874974149137916
21591340 7 18131066052566542103
23081809 10 18271240641964542582
23389318 12 9079113345790614169
23569943 247 17895740812615384250
246663 6 16370445544470586798
24893992 56 17775563178709183331
2747138 104 15791730819421864829
2835820 82 18189049790648904626
3092352 35 18342174484471410215
437795 160 17060044995785755967
437795 51 16949998110924155450
439807 62 17458062643643400106
44880568 143 12607142694062233451
5381727 24 18342458158803620831
5470011 282 10159702382684603673
6201320 215 17489027033753464257
6698420 124 18113624499509448505
99344 41 18059858367541652911

>  <PUBCHEM_SHAPE_MULTIPOLES>
581.63
32.65
2.15
1.35
13.18
1.18
-0.11
-4.29
-9.19
-4.98
0.03
1.34
-0.19
-4.23

>  <PUBCHEM_SHAPE_SELFOVERLAP>
1278.317

>  <PUBCHEM_SHAPE_VOLUME>
309.3

>  <PUBCHEM_COORDINATE_TYPE>
2
5
10

$$$$
3121
 OpenBabel10062414423D

 26 25  0  0  0  0  0  0  0  0999 V2000
    0.0361   -2.0835    0.9381 O   0  0  0  0  0  0  0  0  0  0  0  0
   -0.0363   -1.6209   -1.2811 O   0  0  0  0  0  0  0  0  0  0  0  0
    0.0033    0.2266    0.3127 C   0  0  0  0  0  0  0  0  0  0  0  0
   -1.2719    0.9645   -0.1373 C   0  0  0  0  0  0  0  0  0  0  0  0
    1.2906    0.9120   -0.1867 C   0  0  0  0  0  0  0  0  0  0  0  0
   -2.5822    0.3510    0.3741 C   0  0  0  0  0  0  0  0  0  0  0  0
    2.5926    0.3283    0.3715 C   0  0  0  0  0  0  0  0  0  0  0  0
   -0.0073   -1.2331   -0.1204 C   0  0  0  0  0  0  0  0  0  0  0  0
   -3.8289    1.0594   -0.1333 C   0  0  0  0  0  0  0  0  0  0  0  0
    3.8041    1.0956   -0.1376 C   0  0  0  0  0  0  0  0  0  0  0  0
    0.0205    0.2489    1.4110 H   0  0  0  0  0  0  0  0  0  0  0  0
   -1.2180    2.0088    0.1953 H   0  0  0  0  0  0  0  0  0  0  0  0
   -1.3027    0.9869   -1.2345 H   0  0  0  0  0  0  0  0  0  0  0  0
    1.3229    0.8661   -1.2832 H   0  0  0  0  0  0  0  0  0  0  0  0
    1.2442    1.9763    0.0783 H   0  0  0  0  0  0  0  0  0  0  0  0
   -2.6438   -0.7010    0.0737 H   0  0  0  0  0  0  0  0  0  0  0  0
   -2.5834    0.3685    1.4704 H   0  0  0  0  0  0  0  0  0  0  0  0
    2.6920   -0.7237    0.0826 H   0  0  0  0  0  0  0  0  0  0  0  0
    2.5748    0.3657    1.4667 H   0  0  0  0  0  0  0  0  0  0  0  0
   -3.8806    1.0230   -1.2260 H   0  0  0  0  0  0  0  0  0  0  0  0
   -4.7283    0.5815    0.2674 H   0  0  0  0  0  0  0  0  0  0  0  0
   -3.8333    2.1093    0.1762 H   0  0  0  0  0  0  0  0  0  0  0  0
    3.7580    2.1471    0.1636 H   0  0  0  0  0  0  0  0  0  0  0  0
    4.7237    0.6655    0.2713 H   0  0  0  0  0  0  0  0  0  0  0  0
    3.8651    1.0526   -1.2297 H   0  0  0  0  0  0  0  0  0  0  0  0
    0.0365   -3.0220    0.6527 H   0  0  0  0  0  0  0  0  0  0  0  0
  1  8  1  0  0  0  0
  1 26  1  0  0  0  0
  2  8  2  0  0  0  0
  3  4  1  0  0  0  0
  3  5  1  0  0  0  0
  3  8  1  0  0  0  0
  3 11  1  0  0  0  0
  4  6  1  0  0  0  0
  4 12  1  0  0  0  0
  4 13  1  0  0  0  0
  5  7  1  0  0  0  0
  5 14  1  0  0  0  0
  5 15  1  0  0  0  0
  6  9  1  0  0  0  0
  6 16  1  0  0  0  0
  6 17  1  0  0  0  0
  7 10  1  0  0  0  0
  7 18  1  0  0  0  0
  7 19  1  0  0  0  0
  9 20  1  0  0  0  0
  9 21  1  0  0  0  0
  9 22  1  0  0  0  0
 10 23  1  0  0  0  0
 10 24  1  0  0  0  0
 10 25  1  0  0  0  0
M  END
>  <PUBCHEM_COMPOUND_CID>
3121

>  <PUBCHEM_CONFORMER_RMSD>
0.6

>  <PUBCHEM_CONFORMER_DIVERSEORDER>
1
27
8
33
23
26
39
36
18
40
6
29
30
11
42
43
24
16
3
17
10
32
20
41
31
25
12
13
22
37
35
15
7
28
38
9
14
34
19
4
5
21
2

>  <PUBCHEM_MMFF94_PARTIAL_CHARGES>
5
1 -0.65
2 -0.57
26 0.5
3 0.06
8 0.66

>  <PUBCHEM_EFFECTIVE_ROTOR_COUNT>
5

>  <PUBCHEM_PHARMACOPHORE_FEATURES>
6
1 1 acceptor
1 10 hydrophobe
1 2 acceptor
1 9 hydrophobe
3 1 2 8 anion
5 3 4 5 6 7 hydrophobe

>  <PUBCHEM_HEAVY_ATOM_COUNT>
10

>  <PUBCHEM_ATOM_DEF_STEREO_COUNT>
0

>  <PUBCHEM_ATOM_UDEF_STEREO_COUNT>
0

>  <PUBCHEM_BOND_DEF_STEREO_COUNT>
0

>  <PUBCHEM_BOND_UDEF_STEREO_COUNT>
0

>  <PUBCHEM_ISOTOPIC_ATOM_COUNT>
0

>  <PUBCHEM_COMPONENT_COUNT>
1

>  <PUBCHEM_CACTVS_TAUTO_COUNT>
1

>  <PUBCHEM_CONFORMER_ID>
00000C3100000001

>  <PUBCHEM_MMFF94_ENERGY>
4.2122

>  <PUBCHEM_FEATURE_SELFOVERLAP>
30.505

>  <PUBCHEM_SHAPE_FINGERPRINT>
10219947 1 18187085027039450149
10922049 32 18411426110994959046
12138202 97 17988647457818087428
14325111 11 18410575088968888112
14993402 34 18334294300970710804
15775835 57 18412260640283693185
170605 34 18341614772273879357
21524375 3 18412543206219039792
23235685 24 18412541011501359496
23402539 116 17988635303129730908
366044 4 18272369784650814540
528862 383 17969210166708419594
81539 233 18261952947033080927

>  <PUBCHEM_SHAPE_MULTIPOLES>
194.06
5.46
1.74
0.84
0.08
1.03
-0.09
-3.63
0.03
-0.02
-0.03
0
0.31
-0.02

>  <PUBCHEM_SHAPE_SELFOVERLAP>
352.683

>  <PUBCHEM_SHAPE_VOLUME>
124.6

>  <PUBCHEM_COORDINATE_TYPE>
2
5
10

$$$$
5352062
 OpenBabel10062414423D

 72 73  0  0  1  0  0  0  0  0999 V2000
   -0.7290    1.1984   -2.4515 S   0  0  0  0  0  0  0  0  0  0  0  0
   -1.8655    1.0512   -4.1528 S   0  0  0  0  0  0  0  0  0  0  0  0
    0.9329   -2.0967   -0.8255 O   0  0  0  0  0  0  0  0  0  0  0  0
   -3.6981    1.5889    0.5123 O   0  0  0  0  0  0  0  0  0  0  0  0
   -0.0987   -1.2778    1.6439 O   0  0  0  0  0  0  0  0  0  0  0  0
    2.2638   -3.9121   -0.3559 O   0  0  0  0  0  0  0  0  0  0  0  0
    0.6707    4.3306    0.1302 O   0  0  0  0  0  0  0  0  0  0  0  0
    4.5180    0.8012   -0.7165 O   0  0  0  0  0  0  0  0  0  0  0  0
   -2.3733   -1.2514    1.2063 N   0  0  0  0  0  0  0  0  0  0  0  0
   -1.3823    1.5574    0.7057 N   0  0  0  0  0  0  0  0  0  0  0  0
    2.6400   -0.3408    0.0050 N   0  0  0  0  0  0  0  0  0  0  0  0
    1.2539    2.0730   -0.0733 N   0  0  0  0  0  0  0  0  0  0  0  0
   -2.6818   -0.0514    1.9702 C   0  0  2  0  0  0  0  0  0  0  0  0
   -4.0306   -0.1949    2.6625 C   0  0  0  0  0  0  0  0  0  0  0  0
    3.1874   -1.6847   -0.1458 C   0  0  1  0  0  0  0  0  0  0  0  0
    3.9606   -2.0766    1.1083 C   0  0  0  0  0  0  0  0  0  0  0  0
   -2.6692    1.1184    0.9925 C   0  0  0  0  0  0  0  0  0  0  0  0
   -4.0276   -1.3945    3.6096 C   0  0  0  0  0  0  0  0  0  0  0  0
   -4.3881    1.0830    3.4211 C   0  0  0  0  0  0  0  0  0  0  0  0
   -0.2425   -2.9180   -1.0273 C   0  0  1  0  0  0  0  0  0  0  0  0
   -1.0084   -3.0527    0.3000 C   0  0  0  0  0  0  0  0  0  0  0  0
   -1.1007    2.7348   -0.1077 C   0  0  2  0  0  0  0  0  0  0  0  0
   -1.0936   -1.7687    1.1115 C   0  0  0  0  0  0  0  0  0  0  0  0
    2.0880   -2.7009   -0.4288 C   0  0  0  0  0  0  0  0  0  0  0  0
    5.0879   -1.0817    1.3799 C   0  0  0  0  0  0  0  0  0  0  0  0
    3.0248   -2.1667    2.3128 C   0  0  0  0  0  0  0  0  0  0  0  0
   -1.5189    2.5948   -1.5808 C   0  0  0  0  0  0  0  0  0  0  0  0
   -0.9700   -2.3721   -2.2290 C   0  0  0  0  0  0  0  0  0  0  0  0
    0.3701    3.1407    0.0454 C   0  0  0  0  0  0  0  0  0  0  0  0
    3.3666    0.8027   -0.2848 C   0  0  0  0  0  0  0  0  0  0  0  0
    2.6325    2.0873   -0.0112 C   0  0  0  0  0  0  0  0  0  0  0  0
   -2.2411   -1.9535   -2.3151 C   0  0  0  0  0  0  0  0  0  0  0  0
   -2.8852   -1.5075   -3.5986 C   0  0  0  0  0  0  0  0  0  0  0  0
   -3.2522   -0.0221   -3.6361 C   0  0  0  0  0  0  0  0  0  0  0  0
    3.3990    3.1528    0.2631 C   0  0  0  0  0  0  0  0  0  0  0  0
    2.8605    4.5098    0.5602 C   0  0  0  0  0  0  0  0  0  0  0  0
   -1.8952    0.1092    2.7187 H   0  0  0  0  0  0  0  0  0  0  0  0
   -4.8174   -0.3697    1.9159 H   0  0  0  0  0  0  0  0  0  0  0  0
    3.8510   -1.6812   -1.0192 H   0  0  0  0  0  0  0  0  0  0  0  0
    4.4119   -3.0657    0.9566 H   0  0  0  0  0  0  0  0  0  0  0  0
   -3.1310   -1.6962    0.6976 H   0  0  0  0  0  0  0  0  0  0  0  0
   -3.2392   -1.3029    4.3648 H   0  0  0  0  0  0  0  0  0  0  0  0
   -4.9857   -1.4744    4.1348 H   0  0  0  0  0  0  0  0  0  0  0  0
   -3.8762   -2.3359    3.0716 H   0  0  0  0  0  0  0  0  0  0  0  0
   -3.6081    1.3431    4.1455 H   0  0  0  0  0  0  0  0  0  0  0  0
   -5.3222    0.9472    3.9780 H   0  0  0  0  0  0  0  0  0  0  0  0
   -4.5384    1.9431    2.7643 H   0  0  0  0  0  0  0  0  0  0  0  0
    0.0692   -3.9287   -1.3243 H   0  0  0  0  0  0  0  0  0  0  0  0
   -0.4651   -3.7576    0.9446 H   0  0  0  0  0  0  0  0  0  0  0  0
   -1.9989   -3.4945    0.1459 H   0  0  0  0  0  0  0  0  0  0  0  0
   -1.6944    3.5474    0.3320 H   0  0  0  0  0  0  0  0  0  0  0  0
   -0.6012    1.0903    1.1569 H   0  0  0  0  0  0  0  0  0  0  0  0
    5.7362   -0.9593    0.5073 H   0  0  0  0  0  0  0  0  0  0  0  0
    4.7321   -0.1089    1.7300 H   0  0  0  0  0  0  0  0  0  0  0  0
    5.7253   -1.4720    2.1831 H   0  0  0  0  0  0  0  0  0  0  0  0
    3.5901   -2.4659    3.2031 H   0  0  0  0  0  0  0  0  0  0  0  0
    2.2373   -2.9134    2.1750 H   0  0  0  0  0  0  0  0  0  0  0  0
    2.5529   -1.2056    2.5422 H   0  0  0  0  0  0  0  0  0  0  0  0
    1.7184   -0.2646    0.4225 H   0  0  0  0  0  0  0  0  0  0  0  0
   -2.6046    2.4696   -1.6386 H   0  0  0  0  0  0  0  0  0  0  0  0
   -1.2587    3.5119   -2.1210 H   0  0  0  0  0  0  0  0  0  0  0  0
   -0.3736   -2.3562   -3.1411 H   0  0  0  0  0  0  0  0  0  0  0  0
    0.8361    1.1758   -0.3021 H   0  0  0  0  0  0  0  0  0  0  0  0
   -2.8856   -1.9646   -1.4445 H   0  0  0  0  0  0  0  0  0  0  0  0
   -2.2762   -1.7804   -4.4696 H   0  0  0  0  0  0  0  0  0  0  0  0
   -3.8129   -2.0869   -3.6959 H   0  0  0  0  0  0  0  0  0  0  0  0
   -4.0318    0.1179   -4.3931 H   0  0  0  0  0  0  0  0  0  0  0  0
   -3.6709    0.3263   -2.6855 H   0  0  0  0  0  0  0  0  0  0  0  0
    4.4826    3.0626    0.2865 H   0  0  0  0  0  0  0  0  0  0  0  0
    3.7367    5.0964    0.8836 H   0  0  0  0  0  0  0  0  0  0  0  0
    2.2477    4.5569    1.4658 H   0  0  0  0  0  0  0  0  0  0  0  0
    2.5594    5.0642   -0.3338 H   0  0  0  0  0  0  0  0  0  0  0  0
  1  2  1  0  0  0  0
  1 27  1  0  0  0  0
  2 34  1  0  0  0  0
  3 20  1  0  0  0  0
  3 24  1  0  0  0  0
  4 17  2  0  0  0  0
  5 23  2  0  0  0  0
  6 24  2  0  0  0  0
  7 29  2  0  0  0  0
  8 30  2  0  0  0  0
  9 13  1  0  0  0  0
  9 23  1  0  0  0  0
  9 41  1  0  0  0  0
 10 17  1  0  0  0  0
 10 22  1  0  0  0  0
 10 52  1  0  0  0  0
 11 15  1  0  0  0  0
 11 30  1  0  0  0  0
 11 59  1  0  0  0  0
 12 29  1  0  0  0  0
 12 31  1  0  0  0  0
 12 63  1  0  0  0  0
 13 14  1  0  0  0  0
 13 17  1  0  0  0  0
 13 37  1  1  0  0  0
 14 18  1  0  0  0  0
 14 19  1  0  0  0  0
 14 38  1  0  0  0  0
 15 16  1  0  0  0  0
 15 24  1  0  0  0  0
 15 39  1  6  0  0  0
 16 25  1  0  0  0  0
 16 26  1  0  0  0  0
 16 40  1  0  0  0  0
 18 42  1  0  0  0  0
 18 43  1  0  0  0  0
 18 44  1  0  0  0  0
 19 45  1  0  0  0  0
 19 46  1  0  0  0  0
 19 47  1  0  0  0  0
 20 21  1  0  0  0  0
 20 28  1  0  0  0  0
 20 48  1  6  0  0  0
 21 23  1  0  0  0  0
 21 49  1  0  0  0  0
 21 50  1  0  0  0  0
 22 27  1  0  0  0  0
 22 29  1  0  0  0  0
 22 51  1  1  0  0  0
 25 53  1  0  0  0  0
 25 54  1  0  0  0  0
 25 55  1  0  0  0  0
 26 56  1  0  0  0  0
 26 57  1  0  0  0  0
 26 58  1  0  0  0  0
 27 60  1  0  0  0  0
 27 61  1  0  0  0  0
 28 32  2  0  0  0  0
 28 62  1  0  0  0  0
 30 31  1  0  0  0  0
 31 35  2  0  0  0  0
 32 33  1  0  0  0  0
 32 64  1  0  0  0  0
 33 34  1  0  0  0  0
 33 65  1  0  0  0  0
 33 66  1  0  0  0  0
 34 67  1  0  0  0  0
 34 68  1  0  0  0  0
 35 36  1  0  0  0  0
 35 69  1  0  0  0  0
 36 70  1  0  0  0  0
 36 71  1  0  0  0  0
 36 72  1  0  0  0  0
M  END
>  <PUBCHEM_COMPOUND_CID>
5352062

>  <PUBCHEM_CONFORMER_RMSD>
0.8

>  <PUBCHEM_CONFORMER_DIVERSEORDER>
1
2

>  <PUBCHEM_MMFF94_PARTIAL_CHARGES>
37
1 -0.23
10 -0.73
11 -0.73
12 -0.54
13 0.36
15 0.36
17 0.57
2 -0.23
20 0.42
21 0.06
22 0.36
23 0.57
24 0.66
27 0.23
28 -0.29
29 0.57
3 -0.43
30 0.62
31 0.12
32 -0.29
33 0.14
34 0.23
35 -0.29
36 0.14
4 -0.57
41 0.37
5 -0.57
52 0.37
59 0.37
6 -0.57
62 0.15
63 0.37
64 0.15
69 0.15
7 -0.57
8 -0.57
9 -0.73

>  <PUBCHEM_EFFECTIVE_ROTOR_COUNT>
4.6

>  <PUBCHEM_PHARMACOPHORE_FEATURES>
12
1 10 donor
1 11 donor
1 12 donor
1 36 hydrophobe
1 4 acceptor
1 5 acceptor
1 6 acceptor
1 7 acceptor
1 8 acceptor
1 9 donor
3 14 18 19 hydrophobe
3 16 25 26 hydrophobe

>  <PUBCHEM_HEAVY_ATOM_COUNT>
36

>  <PUBCHEM_ATOM_DEF_STEREO_COUNT>
4

>  <PUBCHEM_ATOM_UDEF_STEREO_COUNT>
0

>  <PUBCHEM_BOND_DEF_STEREO_COUNT>
2

>  <PUBCHEM_BOND_UDEF_STEREO_COUNT>
0

>  <PUBCHEM_ISOTOPIC_ATOM_COUNT>
0

>  <PUBCHEM_COMPONENT_COUNT>
1

>  <PUBCHEM_CACTVS_TAUTO_COUNT>
24

>  <PUBCHEM_CONFORMER_ID>
0051AA7E00000001

>  <PUBCHEM_MMFF94_ENERGY>
99.1918

>  <PUBCHEM_FEATURE_SELFOVERLAP>
60.908

>  <PUBCHEM_SHAPE_FINGERPRINT>
10032420 55 17749683938997280048
10675989 125 16829532640936670795
11578080 2 16588019070344400286
12156800 1 16128378241874142183
12522641 24 16475979166736193759
12549972 3 17096342030507426042
12608794 3 18411127043859065426
12655364 131 17843660391972877648
1361 2 17407657538148181197
13642711 20 17610890193894897749
14251757 17 17832666391821404133
14395042 70 14425111327306553631
20764821 26 18339069488992638456
21796203 349 18267048097397443264
23419403 2 18113057138656249047
238 59 18046033069742218524
25265897 201 17267556963108540310
27425 322 15051452644264107179
3493558 16 17904493149038333235
35225 105 18339655420935980556
463206 1 17979604906656482436
469060 322 18198599082835772983
50150288 127 17056420025970523289
6287921 2 17199974153973435459

>  <PUBCHEM_SHAPE_MULTIPOLES>
693.42
7.9
5.26
4.13
4.13
2.6
-1.44
-0.63
4.38
4.13
-0.06
-8.02
-0.83
-0.27

>  <PUBCHEM_SHAPE_SELFOVERLAP>
1384.615

>  <PUBCHEM_SHAPE_VOLUME>
407.6

>  <PUBCHEM_COORDINATE_TYPE>
2
5
10

$$$$
71520717
 OpenBabel10062414423D

 43 43  0  0  0  0  0  0  0  0999 V2000
   -0.1155   -0.7290    0.2072 O   0  0  0  0  0  0  0  0  0  0  0  0
    7.8660   -0.2957   -1.3586 O   0  0  0  0  0  0  0  0  0  0  0  0
   -2.3523   -2.1235    0.7007 O   0  0  0  0  0  0  0  0  0  0  0  0
    9.1241   -0.2380    1.0300 O   0  0  0  0  0  0  0  0  0  0  0  0
   -1.3826   -0.1391    0.0354 N   0  0  0  0  0  0  0  0  0  0  0  0
    7.8384    0.2969    0.8731 N   0  0  0  0  0  0  0  0  0  0  0  0
    3.4082    0.5324   -0.3110 C   0  0  0  0  0  0  0  0  0  0  0  0
    4.7836   -0.1256   -0.1573 C   0  0  0  0  0  0  0  0  0  0  0  0
    2.2499   -0.3988    0.0493 C   0  0  0  0  0  0  0  0  0  0  0  0
    5.9264    0.8434   -0.4614 C   0  0  0  0  0  0  0  0  0  0  0  0
    0.8761    0.2314   -0.1338 C   0  0  0  0  0  0  0  0  0  0  0  0
    7.3041    0.2078   -0.3895 C   0  0  0  0  0  0  0  0  0  0  0  0
   -3.7943   -0.3520    0.1550 C   0  0  0  0  0  0  0  0  0  0  0  0
   -5.2243    1.5948    0.1112 C   0  0  0  0  0  0  0  0  0  0  0  0
   -6.1554   -0.5975   -0.2940 C   0  0  0  0  0  0  0  0  0  0  0  0
   -4.8917   -1.1645   -0.1296 C   0  0  0  0  0  0  0  0  0  0  0  0
   -3.9606    1.0277    0.2754 C   0  0  0  0  0  0  0  0  0  0  0  0
   -6.3217    0.7822   -0.1736 C   0  0  0  0  0  0  0  0  0  0  0  0
   -2.4473   -0.9564    0.3301 C   0  0  0  0  0  0  0  0  0  0  0  0
   -5.4023    3.0699    0.2398 C   0  0  0  0  0  0  0  0  0  0  0  0
   -7.3288   -1.4662   -0.5984 C   0  0  0  0  0  0  0  0  0  0  0  0
    3.2880    0.8752   -1.3460 H   0  0  0  0  0  0  0  0  0  0  0  0
    3.3604    1.4240    0.3264 H   0  0  0  0  0  0  0  0  0  0  0  0
    4.8965   -0.5095    0.8641 H   0  0  0  0  0  0  0  0  0  0  0  0
    4.8528   -0.9938   -0.8242 H   0  0  0  0  0  0  0  0  0  0  0  0
    2.3546   -0.7347    1.0889 H   0  0  0  0  0  0  0  0  0  0  0  0
    2.3075   -1.3102   -0.5595 H   0  0  0  0  0  0  0  0  0  0  0  0
    5.8840    1.6995    0.2232 H   0  0  0  0  0  0  0  0  0  0  0  0
    5.8108    1.2509   -1.4734 H   0  0  0  0  0  0  0  0  0  0  0  0
    0.7444    0.5417   -1.1774 H   0  0  0  0  0  0  0  0  0  0  0  0
    0.7786    1.1098    0.5155 H   0  0  0  0  0  0  0  0  0  0  0  0
   -4.7691   -2.2407   -0.2274 H   0  0  0  0  0  0  0  0  0  0  0  0
   -3.1287    1.6809    0.5241 H   0  0  0  0  0  0  0  0  0  0  0  0
   -7.3078    1.2235   -0.2980 H   0  0  0  0  0  0  0  0  0  0  0  0
   -1.4200    0.8091   -0.3214 H   0  0  0  0  0  0  0  0  0  0  0  0
   -4.5256    3.6058   -0.1397 H   0  0  0  0  0  0  0  0  0  0  0  0
   -6.2650    3.4188   -0.3378 H   0  0  0  0  0  0  0  0  0  0  0  0
   -5.5533    3.3398    1.2897 H   0  0  0  0  0  0  0  0  0  0  0  0
   -7.7913   -1.8119    0.3314 H   0  0  0  0  0  0  0  0  0  0  0  0
   -8.0804   -0.9260   -1.1840 H   0  0  0  0  0  0  0  0  0  0  0  0
   -7.0308   -2.3394   -1.1887 H   0  0  0  0  0  0  0  0  0  0  0  0
    7.4546    0.8117    1.6573 H   0  0  0  0  0  0  0  0  0  0  0  0
    8.9020   -1.1245    1.3619 H   0  0  0  0  0  0  0  0  0  0  0  0
  1  5  1  0  0  0  0
  1 11  1  0  0  0  0
  2 12  2  0  0  0  0
  3 19  2  0  0  0  0
  4  6  1  0  0  0  0
  4 43  1  0  0  0  0
  5 19  1  0  0  0  0
  5 35  1  0  0  0  0
  6 12  1  0  0  0  0
  6 42  1  0  0  0  0
  7  8  1  0  0  0  0
  7  9  1  0  0  0  0
  7 22  1  0  0  0  0
  7 23  1  0  0  0  0
  8 10  1  0  0  0  0
  8 24  1  0  0  0  0
  8 25  1  0  0  0  0
  9 11  1  0  0  0  0
  9 26  1  0  0  0  0
  9 27  1  0  0  0  0
 10 12  1  0  0  0  0
 10 28  1  0  0  0  0
 10 29  1  0  0  0  0
 11 30  1  0  0  0  0
 11 31  1  0  0  0  0
 13 16  2  0  0  0  0
 13 17  1  0  0  0  0
 13 19  1  0  0  0  0
 14 17  2  0  0  0  0
 14 18  1  0  0  0  0
 14 20  1  0  0  0  0
 15 16  1  0  0  0  0
 15 18  2  0  0  0  0
 15 21  1  0  0  0  0
 16 32  1  0  0  0  0
 17 33  1  0  0  0  0
 18 34  1  0  0  0  0
 20 36  1  0  0  0  0
 20 37  1  0  0  0  0
 20 38  1  0  0  0  0
 21 39  1  0  0  0  0
 21 40  1  0  0  0  0
 21 41  1  0  0  0  0
M  END
>  <PUBCHEM_COMPOUND_CID>
71520717

>  <PUBCHEM_CONFORMER_RMSD>
1.4

>  <PUBCHEM_CONFORMER_DIVERSEORDER>
1
37
25
21
11
2
28
7
9
36
20
6
24
41
32
40
16
15
5
10
3
30
19
23
12
26
31
18
29
4
35
8
27
33
22
39
17
38
13
34
14

>  <PUBCHEM_MMFF94_PARTIAL_CHARGES>
24
1 -0.32
10 0.06
11 0.28
12 0.57
13 0.09
14 -0.14
15 -0.14
16 -0.15
17 -0.15
18 -0.15
19 0.54
2 -0.57
20 0.14
21 0.14
3 -0.57
32 0.15
33 0.15
34 0.15
35 0.37
4 -0.44
42 0.37
43 0.4
5 -0.39
6 -0.39

>  <PUBCHEM_EFFECTIVE_ROTOR_COUNT>
10

>  <PUBCHEM_PHARMACOPHORE_FEATURES>
6
1 2 acceptor
1 3 acceptor
1 5 donor
1 6 donor
4 7 8 9 10 hydrophobe
6 13 14 15 16 17 18 rings

>  <PUBCHEM_HEAVY_ATOM_COUNT>
21

>  <PUBCHEM_ATOM_DEF_STEREO_COUNT>
0

>  <PUBCHEM_ATOM_UDEF_STEREO_COUNT>
0

>  <PUBCHEM_BOND_DEF_STEREO_COUNT>
0

>  <PUBCHEM_BOND_UDEF_STEREO_COUNT>
0

>  <PUBCHEM_ISOTOPIC_ATOM_COUNT>
0

>  <PUBCHEM_COMPONENT_COUNT>
1

>  <PUBCHEM_CACTVS_TAUTO_COUNT>
8

>  <PUBCHEM_CONFORMER_ID>
044351CD00000001

>  <PUBCHEM_MMFF94_ENERGY>
42.4062

>  <PUBCHEM_FEATURE_SELFOVERLAP>
30.446

>  <PUBCHEM_SHAPE_FINGERPRINT>
10066227 49 17417822682366546870
10087517 78 18334576811419934629
10299344 5 17822009809609131346
10670039 82 18335414656576063993
10730089 173 18412265026062519817
11315181 36 17749676272327669129
11719270 70 18131354090623014094
12082328 90 18202001015009295839
12091667 2 18410577297156889827
125118 31 18410576215337464312
13885169 127 18412826876314143004
13914758 101 18408888413016028536
14123256 10 13830134996770198766
14251764 18 18113898260545689570
14251764 46 18409448103110338430
14729087 3 18343018874461230312
15183329 4 17967531272682411824
15419008 47 17418369186352180232
15461852 350 18272656782829030255
15716309 27 11815903348973269884
1577012 14 18334292024922503833
17780758 139 7853856084058418687
19489759 90 18413673517637303777
195137 175 17894641370286859204
20281389 69 18187363246805548908
21150785 3 12319734778883757584
21315763 28 18410855490409431652
23559900 14 18271520996334733489
28498 318 16950556676296092034
33684 2 18261108591176106751
4073 2 17822861999903782738
4339292 15 17203034301656865455
444735 82 18339922745009222584
5969126 39 14979680957371398808
8209 1 18409448102688377838

>  <PUBCHEM_SHAPE_MULTIPOLES>
398.73
27.99
1.81
0.81
53.62
1.02
-0.03
1.85
-1.2
-4.91
0.16
0.98
-0.07
-0.45

>  <PUBCHEM_SHAPE_SELFOVERLAP>
797.889

>  <PUBCHEM_SHAPE_VOLUME>
236.1

>  <PUBCHEM_COORDINATE_TYPE>
2
5
10

$$$$
12136798
 OpenBabel10062414423D

 48 50  0  0  0  0  0  0  0  0999 V2000
   -8.4388   -2.7512    0.1945 F   0  0  0  0  0  0  0  0  0  0  0  0
   -4.1010    1.8725    1.3222 O   0  0  0  0  0  0  0  0  0  0  0  0
    3.1618    1.1448   -1.9791 O   0  0  0  0  0  0  0  0  0  0  0  0
   -3.6702    0.0307   -0.0661 N   0  0  0  0  0  0  0  0  0  0  0  0
    2.9399    2.3981   -0.0340 N   0  0  0  0  0  0  0  0  0  0  0  0
   -3.9796   -2.3962   -1.5129 N   0  0  0  0  0  0  0  0  0  0  0  0
    7.2996   -1.9880    1.9010 N   0  0  0  0  0  0  0  0  0  0  0  0
    0.5294    2.7526   -0.2166 C   0  0  0  0  0  0  0  0  0  0  0  0
    1.9022    3.2920   -0.4973 C   0  0  0  0  0  0  0  0  0  0  0  0
   -2.0131    1.7563    0.3033 C   0  0  0  0  0  0  0  0  0  0  0  0
   -0.1006    1.9501   -1.1603 C   0  0  0  0  0  0  0  0  0  0  0  0
   -0.0982    3.0624    0.9843 C   0  0  0  0  0  0  0  0  0  0  0  0
   -1.3765    1.4501   -0.8996 C   0  0  0  0  0  0  0  0  0  0  0  0
   -1.3739    2.5623    1.2452 C   0  0  0  0  0  0  0  0  0  0  0  0
   -3.3426    1.2332    0.5756 C   0  0  0  0  0  0  0  0  0  0  0  0
   -4.8852   -0.6955   -0.0113 C   0  0  0  0  0  0  0  0  0  0  0  0
   -5.0275   -1.8773   -0.7199 C   0  0  0  0  0  0  0  0  0  0  0  0
   -5.9166   -0.1920    0.7655 C   0  0  0  0  0  0  0  0  0  0  0  0
   -6.2334   -2.5749   -0.6503 C   0  0  0  0  0  0  0  0  0  0  0  0
    3.4815    1.3966   -0.8219 C   0  0  0  0  0  0  0  0  0  0  0  0
   -7.1225   -0.8898    0.8351 C   0  0  0  0  0  0  0  0  0  0  0  0
   -7.2809   -2.0811    0.1272 C   0  0  0  0  0  0  0  0  0  0  0  0
    4.5313    0.6271   -0.0948 C   0  0  0  0  0  0  0  0  0  0  0  0
    5.1735   -0.3756   -0.7118 C   0  0  0  0  0  0  0  0  0  0  0  0
    6.2318   -1.1952   -0.0954 C   0  0  0  0  0  0  0  0  0  0  0  0
    7.1094   -1.9067   -0.8865 C   0  0  0  0  0  0  0  0  0  0  0  0
    6.3523   -1.2565    1.2722 C   0  0  0  0  0  0  0  0  0  0  0  0
    8.0978   -2.6710   -0.2764 C   0  0  0  0  0  0  0  0  0  0  0  0
    8.1499   -2.6780    1.1082 C   0  0  0  0  0  0  0  0  0  0  0  0
    2.0299    3.4722   -1.5714 H   0  0  0  0  0  0  0  0  0  0  0  0
    2.0487    4.2551    0.0050 H   0  0  0  0  0  0  0  0  0  0  0  0
    0.3798    1.7140   -2.1056 H   0  0  0  0  0  0  0  0  0  0  0  0
    0.3917    3.6870    1.7261 H   0  0  0  0  0  0  0  0  0  0  0  0
   -1.8484    0.8603   -1.6797 H   0  0  0  0  0  0  0  0  0  0  0  0
   -1.8498    2.8081    2.1910 H   0  0  0  0  0  0  0  0  0  0  0  0
   -2.9437   -0.4180   -0.6110 H   0  0  0  0  0  0  0  0  0  0  0  0
    3.2624    2.5189    0.9219 H   0  0  0  0  0  0  0  0  0  0  0  0
   -5.8818    0.7181    1.3437 H   0  0  0  0  0  0  0  0  0  0  0  0
   -6.3709   -3.5046   -1.1964 H   0  0  0  0  0  0  0  0  0  0  0  0
   -7.9393   -0.5071    1.4401 H   0  0  0  0  0  0  0  0  0  0  0  0
    4.7530    0.9294    0.9222 H   0  0  0  0  0  0  0  0  0  0  0  0
   -4.1244   -3.2611   -2.0180 H   0  0  0  0  0  0  0  0  0  0  0  0
   -3.1016   -1.9116   -1.6209 H   0  0  0  0  0  0  0  0  0  0  0  0
    4.9359   -0.6267   -1.7429 H   0  0  0  0  0  0  0  0  0  0  0  0
    7.0478   -1.8831   -1.9709 H   0  0  0  0  0  0  0  0  0  0  0  0
    5.6885   -0.7419    1.9579 H   0  0  0  0  0  0  0  0  0  0  0  0
    8.8052   -3.2430   -0.8659 H   0  0  0  0  0  0  0  0  0  0  0  0
    8.9021   -3.2580    1.6325 H   0  0  0  0  0  0  0  0  0  0  0  0
  1 22  1  0  0  0  0
  2 15  2  0  0  0  0
  3 20  2  0  0  0  0
  4 15  1  0  0  0  0
  4 16  1  0  0  0  0
  4 36  1  0  0  0  0
  5  9  1  0  0  0  0
  5 20  1  0  0  0  0
  5 37  1  0  0  0  0
  6 17  1  0  0  0  0
  6 42  1  0  0  0  0
  6 43  1  0  0  0  0
  7 27  1  0  0  0  0
  7 29  2  0  0  0  0
  8  9  1  0  0  0  0
  8 11  2  0  0  0  0
  8 12  1  0  0  0  0
  9 30  1  0  0  0  0
  9 31  1  0  0  0  0
 10 13  2  0  0  0  0
 10 14  1  0  0  0  0
 10 15  1  0  0  0  0
 11 13  1  0  0  0  0
 11 32  1  0  0  0  0
 12 14  2  0  0  0  0
 12 33  1  0  0  0  0
 13 34  1  0  0  0  0
 14 35  1  0  0  0  0
 16 17  2  0  0  0  0
 16 18  1  0  0  0  0
 17 19  1  0  0  0  0
 18 21  2  0  0  0  0
 18 38  1  0  0  0  0
 19 22  2  0  0  0  0
 19 39  1  0  0  0  0
 20 23  1  0  0  0  0
 21 22  1  0  0  0  0
 21 40  1  0  0  0  0
 23 24  2  0  0  0  0
 23 41  1  0  0  0  0
 24 25  1  0  0  0  0
 24 44  1  0  0  0  0
 25 26  1  0  0  0  0
 25 27  2  0  0  0  0
 26 28  2  0  0  0  0
 26 45  1  0  0  0  0
 27 46  1  0  0  0  0
 28 29  1  0  0  0  0
 28 47  1  0  0  0  0
 29 48  1  0  0  0  0
M  END
>  <PUBCHEM_COMPOUND_CID>
12136798

>  <PUBCHEM_CONFORMER_RMSD>
1

>  <PUBCHEM_CONFORMER_DIVERSEORDER>
1
21
15
68
39
36
25
35
66
24
62
16
47
31
7
59
22
9
54
12
4
27
18
6
30
48
32
19
60
37
56
10
26
53
20
33
63
17
45
43
40
46
57
67
5
65
61
8
14
49
58
28
52
44
55
50
23
51
2
41
64
3
29
42
11
13
34
38

>  <PUBCHEM_MMFF94_PARTIAL_CHARGES>
46
1 -0.19
10 0.09
11 -0.15
12 -0.15
13 -0.15
14 -0.15
15 0.54
16 0.12
17 0.1
18 -0.15
19 -0.15
2 -0.57
20 0.62
21 -0.15
22 0.19
23 -0.14
24 -0.18
25 0.03
26 -0.15
27 0.16
28 -0.15
29 0.16
3 -0.57
32 0.15
33 0.15
34 0.15
35 0.15
36 0.37
37 0.37
38 0.15
39 0.15
4 -0.55
40 0.15
41 0.15
42 0.4
43 0.4
44 0.15
45 0.15
46 0.15
47 0.15
48 0.15
5 -0.73
6 -0.9
7 -0.62
8 -0.14
9 0.44

>  <PUBCHEM_EFFECTIVE_ROTOR_COUNT>
8

>  <PUBCHEM_PHARMACOPHORE_FEATURES>
10
1 2 acceptor
1 3 acceptor
1 4 donor
1 5 donor
1 6 cation
1 6 donor
1 7 acceptor
6 16 17 18 19 21 22 rings
6 7 25 26 27 28 29 rings
6 8 10 11 12 13 14 rings

>  <PUBCHEM_HEAVY_ATOM_COUNT>
29

>  <PUBCHEM_ATOM_DEF_STEREO_COUNT>
0

>  <PUBCHEM_ATOM_UDEF_STEREO_COUNT>
0

>  <PUBCHEM_BOND_DEF_STEREO_COUNT>
1

>  <PUBCHEM_BOND_UDEF_STEREO_COUNT>
0

>  <PUBCHEM_ISOTOPIC_ATOM_COUNT>
0

>  <PUBCHEM_COMPONENT_COUNT>
1

>  <PUBCHEM_CACTVS_TAUTO_COUNT>
4

>  <PUBCHEM_CONFORMER_ID>
00B9315E00000001

>  <PUBCHEM_MMFF94_ENERGY>
94.8008

>  <PUBCHEM_FEATURE_SELFOVERLAP>
50.749

>  <PUBCHEM_SHAPE_FINGERPRINT>
10100884 174 18335983091561984098
10254770 206 18272646878898806751
10533779 1 9727349087637774674
10669705 251 18201164252528472534
10930396 42 15123508095704028611
10939801 23 18130223895653591868
11463208 1 17754186589475114435
11963148 33 18191302668609987986
12013929 112 17313369125389022959
12166972 35 18041000652630433972
12522641 68 10665236951248028224
13248334 5 18049163568415845572
13533116 47 18267589189919909729
1361 4 18191588759858104199
13782708 43 18187362146787603596
14068700 675 18410014308628280584
14344974 204 18194681463663292222
14359421 15 17676200247739188050
14428016 204 11600006561178307099
14565420 104 12031799054004562572
14671636 106 18412265005252315254
14919807 6 17604130568701674727
15230672 131 18334571305603449103
15347591 1 18411138022281497780
15803439 3 14201403772423056328
16126227 98 9439399134005095849
16992779 147 16485821780400238184
16993089 31 17386305289120038099
16994733 274 10447923953762754540
18393751 57 12391520775885128277
19841028 212 18408322219934965930
20028762 73 18411139100628895414
2026 5 18334574651204436843
208703 8 18408880745898330082
20982279 24 17750246966962649587
21033648 29 14117257039864150473
21307412 95 17240773903843998505
21585481 151 18200603480170403246
21585483 132 18113329796123773514
22002106 203 17968649421102415418
23522609 53 18048354173149231172
23569914 152 12036828139603444416
23569943 247 18409171035039658291
24983565 74 18122056770201071211
255183 313 16630518536115619926
270888 7 9799687095868772492
2748736 6 9943519696665976254
3383291 50 18409728460974410434
3504750 166 18343581850669771533
393628 194 10591460820688282538
397830 11 18059281099179824224
3986486 107 13623526823594733430
406291 66 18408321077653480810
42767 46 18333726910411911754
439807 62 18335142020493783869
474113 269 18341606032500664255
4756088 132 17335333226605008519
4760202 70 18260842510285325860
50009960 94 18200016486241369575
5104073 3 17775574164550289977
5718773 13 18408886230824482216
5874358 3 17774426305160965271
59682541 52 14056993898488644184
6636735 143 16271919411802700611
6712543 237 16415761929031104039
7970288 3 18411418372033513078
96874 4 18409729573212034502
9896288 288 17915184503152333064

>  <PUBCHEM_SHAPE_MULTIPOLES>
557.87
26.6
4.43
1.37
13.6
0.77
0.06
-37.26
5.08
0.19
0.09
1.09
-0.04
-2.89

>  <PUBCHEM_SHAPE_SELFOVERLAP>
1207.238

>  <PUBCHEM_SHAPE_VOLUME>
304.5

>  <PUBCHEM_COORDINATE_TYPE>
2
5
10

$$$$
11609955
 OpenBabel10062414423D

 43 44  0  0  0  0  0  0  0  0999 V2000
    0.8751    2.6279   -0.4352 S   0  0  0  0  0  0  0  0  0  0  0  0
    1.0495    3.7168    0.5094 O   0  0  0  0  0  0  0  0  0  0  0  0
    0.6913    2.8530   -1.8567 O   0  0  0  0  0  0  0  0  0  0  0  0
   -5.6195   -1.6461   -1.4165 O   0  0  0  0  0  0  0  0  0  0  0  0
   -7.6362   -2.4811    0.1792 O   0  0  0  0  0  0  0  0  0  0  0  0
   -0.5774    1.8696    0.1151 N   0  0  0  0  0  0  0  0  0  0  0  0
    4.8118   -2.8019   -0.1980 N   0  0  0  0  0  0  0  0  0  0  0  0
   -6.5860   -1.7004    0.6818 N   0  0  0  0  0  0  0  0  0  0  0  0
    2.1346    1.4365   -0.2294 C   0  0  0  0  0  0  0  0  0  0  0  0
    4.1394   -0.4551    0.0969 C   0  0  0  0  0  0  0  0  0  0  0  0
    5.2266   -1.4814    0.2744 C   0  0  0  0  0  0  0  0  0  0  0  0
    2.4302    0.5481   -1.2633 C   0  0  0  0  0  0  0  0  0  0  0  0
    2.8463    1.3742    0.9686 C   0  0  0  0  0  0  0  0  0  0  0  0
    3.4377   -0.4024   -1.0993 C   0  0  0  0  0  0  0  0  0  0  0  0
    3.8538    0.4236    1.1325 C   0  0  0  0  0  0  0  0  0  0  0  0
   -1.3776    1.1693   -0.6887 C   0  0  0  0  0  0  0  0  0  0  0  0
   -0.9924    1.9349    1.3802 C   0  0  0  0  0  0  0  0  0  0  0  0
   -2.4113    0.7331    0.1105 C   0  0  0  0  0  0  0  0  0  0  0  0
   -2.1676    1.2173    1.4193 C   0  0  0  0  0  0  0  0  0  0  0  0
    3.6380   -3.2638    0.5421 C   0  0  0  0  0  0  0  0  0  0  0  0
    5.9087   -3.7599   -0.0662 C   0  0  0  0  0  0  0  0  0  0  0  0
   -3.4981   -0.0519   -0.3283 C   0  0  0  0  0  0  0  0  0  0  0  0
   -4.5518   -0.5191    0.4000 C   0  0  0  0  0  0  0  0  0  0  0  0
   -5.6250   -1.3414   -0.2284 C   0  0  0  0  0  0  0  0  0  0  0  0
    6.0968   -1.1343   -0.2983 H   0  0  0  0  0  0  0  0  0  0  0  0
    5.5375   -1.5305    1.3270 H   0  0  0  0  0  0  0  0  0  0  0  0
    1.8867    0.5759   -2.2035 H   0  0  0  0  0  0  0  0  0  0  0  0
    2.6291    2.0532    1.7883 H   0  0  0  0  0  0  0  0  0  0  0  0
    3.6606   -1.0760   -1.9220 H   0  0  0  0  0  0  0  0  0  0  0  0
    4.4008    0.3850    2.0703 H   0  0  0  0  0  0  0  0  0  0  0  0
   -1.1845    1.0135   -1.7423 H   0  0  0  0  0  0  0  0  0  0  0  0
   -0.4639    2.4530    2.1690 H   0  0  0  0  0  0  0  0  0  0  0  0
   -2.7696    1.0677    2.3053 H   0  0  0  0  0  0  0  0  0  0  0  0
    2.7478   -2.6552    0.3566 H   0  0  0  0  0  0  0  0  0  0  0  0
    3.8174   -3.2955    1.6234 H   0  0  0  0  0  0  0  0  0  0  0  0
    3.3663   -4.2769    0.2213 H   0  0  0  0  0  0  0  0  0  0  0  0
    5.6164   -4.7373   -0.4659 H   0  0  0  0  0  0  0  0  0  0  0  0
    6.2209   -3.8931    0.9761 H   0  0  0  0  0  0  0  0  0  0  0  0
    6.7779   -3.4322   -0.6474 H   0  0  0  0  0  0  0  0  0  0  0  0
   -3.4836   -0.3118   -1.3865 H   0  0  0  0  0  0  0  0  0  0  0  0
   -4.6364   -0.3014    1.4601 H   0  0  0  0  0  0  0  0  0  0  0  0
   -6.5866   -1.5092    1.6778 H   0  0  0  0  0  0  0  0  0  0  0  0
   -7.7727   -3.0896    0.9248 H   0  0  0  0  0  0  0  0  0  0  0  0
  1  2  2  0  0  0  0
  1  3  2  0  0  0  0
  1  6  1  0  0  0  0
  1  9  1  0  0  0  0
  4 24  2  0  0  0  0
  5  8  1  0  0  0  0
  5 43  1  0  0  0  0
  6 16  1  0  0  0  0
  6 17  1  0  0  0  0
  7 11  1  0  0  0  0
  7 20  1  0  0  0  0
  7 21  1  0  0  0  0
  8 24  1  0  0  0  0
  8 42  1  0  0  0  0
  9 12  2  0  0  0  0
  9 13  1  0  0  0  0
 10 11  1  0  0  0  0
 10 14  2  0  0  0  0
 10 15  1  0  0  0  0
 11 25  1  0  0  0  0
 11 26  1  0  0  0  0
 12 14  1  0  0  0  0
 12 27  1  0  0  0  0
 13 15  2  0  0  0  0
 13 28  1  0  0  0  0
 14 29  1  0  0  0  0
 15 30  1  0  0  0  0
 16 18  2  0  0  0  0
 16 31  1  0  0  0  0
 17 19  2  0  0  0  0
 17 32  1  0  0  0  0
 18 19  1  0  0  0  0
 18 22  1  0  0  0  0
 19 33  1  0  0  0  0
 20 34  1  0  0  0  0
 20 35  1  0  0  0  0
 20 36  1  0  0  0  0
 21 37  1  0  0  0  0
 21 38  1  0  0  0  0
 21 39  1  0  0  0  0
 22 23  2  0  0  0  0
 22 40  1  0  0  0  0
 23 24  1  0  0  0  0
 23 41  1  0  0  0  0
M  END
>  <PUBCHEM_COMPOUND_CID>
11609955

>  <PUBCHEM_CONFORMER_RMSD>
0.8

>  <PUBCHEM_CONFORMER_DIVERSEORDER>
1
31
37
30
36
15
26
12
17
11
33
22
4
35
14
2
3
7
8
13
20
9
28
5
18
27
10
29
24
16
19
34
25
23
32
21
6
38

>  <PUBCHEM_MMFF94_PARTIAL_CHARGES>
35
1 1.29
10 -0.14
11 0.41
12 -0.15
13 -0.15
14 -0.15
15 -0.15
16 -0.3
17 -0.3
18 -0.05
19 -0.15
2 -0.65
20 0.27
21 0.27
22 -0.1
23 -0.14
24 0.62
27 0.15
28 0.15
29 0.15
3 -0.65
30 0.15
31 0.15
32 0.15
33 0.15
4 -0.57
40 0.15
41 0.15
42 0.37
43 0.4
5 -0.44
6 0.32
7 -0.81
8 -0.39
9 -0.01

>  <PUBCHEM_EFFECTIVE_ROTOR_COUNT>
7

>  <PUBCHEM_PHARMACOPHORE_FEATURES>
7
1 2 acceptor
1 3 acceptor
1 4 acceptor
1 7 cation
1 8 donor
5 6 16 17 18 19 rings
6 9 10 12 13 14 15 rings

>  <PUBCHEM_HEAVY_ATOM_COUNT>
24

>  <PUBCHEM_ATOM_DEF_STEREO_COUNT>
0

>  <PUBCHEM_ATOM_UDEF_STEREO_COUNT>
0

>  <PUBCHEM_BOND_DEF_STEREO_COUNT>
1

>  <PUBCHEM_BOND_UDEF_STEREO_COUNT>
0

>  <PUBCHEM_ISOTOPIC_ATOM_COUNT>
0

>  <PUBCHEM_COMPONENT_COUNT>
1

>  <PUBCHEM_CACTVS_TAUTO_COUNT>
3

>  <PUBCHEM_CONFORMER_ID>
00B1276300000001

>  <PUBCHEM_MMFF94_ENERGY>
53.6108

>  <PUBCHEM_FEATURE_SELFOVERLAP>
35.536

>  <PUBCHEM_SHAPE_FINGERPRINT>
10042902 136 18266747883378244614
11497681 19 18338241449953585030
11552529 35 17906733601642854592
11761917 116 18267310820880340070
11796584 16 17978228254227254662
12107183 9 18199199408190930985
12166972 35 18113624473223024038
12623949 98 18130231463280505182
12633257 1 15841256117170933504
13103583 49 17844256125041682800
13533116 47 18340770463529612137
13631057 29 18191872228570266582
13885169 86 9511165378710237575
13911852 28 18411696552237642191
13955234 65 18055350498980703089
13965767 371 12103556447424606584
13989917 61 18264773336383508475
14251740 57 18411696582460967866
14344974 204 18050283662244413026
14429115 67 18413108342284337070
14429380 30 18336830767296808706
14528608 73 11963657963940411289
14848178 5 18410570704144616179
14919807 6 17822837716775935167
15019793 15 17907299111197363475
15342168 16 9295290525829875569
15342816 4 18341063934376536444
15475509 35 18057320789810685099
15510800 12 18187369847711536114
155225 6 9943514232983331627
17492 89 18412261722620908577
19315092 285 18131913741439672002
1979834 28 16988295234753886991
20165401 70 18270398425445172983
20567600 234 12895078444579603681
20645477 70 18042403702387246849
20775438 99 17974840971902784283
20775530 9 18339348678703999230
21307412 95 18047464530754836685
21315759 148 17130141997873264118
21401589 2 11311758567039189372
21585483 132 18126829703201593415
22224240 67 18056751260094635944
270888 7 9295277340280335042
2748736 6 8934710063740452198
2838139 119 9439413406149694339
314194 84 18337400417018773496
345986 75 17846785113391368417
3472631 163 8286198353244178321
34797466 226 16516245296899569325
3680242 22 18271534182100966935
44062 13 18262514780675281325
46194498 28 17458904950046762773
463206 1 18334580130949522202
465052 167 18340210794857053117
5104073 3 17703791392388987409
5309563 4 18338516335485092498
56616090 13 9583515421413497837
5718773 13 18409444748372154418
58260988 647 18261682553805496819
6712543 237 15841549635447433559
70251023 43 18334579074804421993
7808743 9 9115993727181225528
7970288 3 18410855442948994242

>  <PUBCHEM_SHAPE_MULTIPOLES>
459.34
15.48
4.25
1.26
19.27
1.21
-0.12
22.55
0.46
-3.09
-0.01
0.04
-0.58
-0.5

>  <PUBCHEM_SHAPE_SELFOVERLAP>
955.276

>  <PUBCHEM_SHAPE_VOLUME>
263.1

>  <PUBCHEM_COORDINATE_TYPE>
2
5
10

$$$$
6918837
 OpenBabel10062414423D

 49 51  0  0  0  0  0  0  0  0999 V2000
    8.4589    0.5614    0.9068 O   0  0  0  0  0  0  0  0  0  0  0  0
   10.0292   -1.5800    0.3925 O   0  0  0  0  0  0  0  0  0  0  0  0
   -6.5334    1.2299    0.0374 N   0  0  0  0  0  0  0  0  0  0  0  0
   -0.7138    0.5486    0.0148 N   0  0  0  0  0  0  0  0  0  0  0  0
    8.6679   -1.5781    0.0577 N   0  0  0  0  0  0  0  0  0  0  0  0
   -4.4787    0.5482    0.5281 C   0  0  0  0  0  0  0  0  0  0  0  0
   -3.0429    0.5511    0.8785 C   0  0  0  0  0  0  0  0  0  0  0  0
   -5.2890   -0.6014    0.3113 C   0  0  0  0  0  0  0  0  0  0  0  0
   -5.2719    1.6586    0.3526 C   0  0  0  0  0  0  0  0  0  0  0  0
   -6.5732   -0.1458    0.0052 C   0  0  0  0  0  0  0  0  0  0  0  0
   -2.1244    0.5750   -0.3565 C   0  0  0  0  0  0  0  0  0  0  0  0
   -5.0524   -1.9900    0.3462 C   0  0  0  0  0  0  0  0  0  0  0  0
   -4.9604    3.0977    0.4512 C   0  0  0  0  0  0  0  0  0  0  0  0
   -7.6368   -1.0130   -0.2688 C   0  0  0  0  0  0  0  0  0  0  0  0
    0.1343    0.5820   -1.1680 C   0  0  0  0  0  0  0  0  0  0  0  0
   -6.1068   -2.8692    0.0742 C   0  0  0  0  0  0  0  0  0  0  0  0
   -7.3783   -2.3860   -0.2282 C   0  0  0  0  0  0  0  0  0  0  0  0
    1.5967    0.5625   -0.8103 C   0  0  0  0  0  0  0  0  0  0  0  0
    2.2536   -0.6538   -0.6869 C   0  0  0  0  0  0  0  0  0  0  0  0
    2.2668    1.7608   -0.6082 C   0  0  0  0  0  0  0  0  0  0  0  0
    3.6082   -0.6721   -0.3546 C   0  0  0  0  0  0  0  0  0  0  0  0
    3.6215    1.7426   -0.2761 C   0  0  0  0  0  0  0  0  0  0  0  0
    4.2921    0.5260   -0.1492 C   0  0  0  0  0  0  0  0  0  0  0  0
    5.7046    0.5068    0.1972 C   0  0  0  0  0  0  0  0  0  0  0  0
    6.5467   -0.5289   -0.0173 C   0  0  0  0  0  0  0  0  0  0  0  0
    7.9814   -0.4330    0.3705 C   0  0  0  0  0  0  0  0  0  0  0  0
   -2.8168    1.4170    1.5148 H   0  0  0  0  0  0  0  0  0  0  0  0
   -2.8114   -0.3326    1.4876 H   0  0  0  0  0  0  0  0  0  0  0  0
   -2.3380    1.4796   -0.9400 H   0  0  0  0  0  0  0  0  0  0  0  0
   -2.3591   -0.2862   -0.9955 H   0  0  0  0  0  0  0  0  0  0  0  0
   -7.3245    1.8319   -0.1458 H   0  0  0  0  0  0  0  0  0  0  0  0
   -0.5241   -0.2975    0.5519 H   0  0  0  0  0  0  0  0  0  0  0  0
   -4.0672   -2.3840    0.5788 H   0  0  0  0  0  0  0  0  0  0  0  0
   -4.7358    3.3690    1.4878 H   0  0  0  0  0  0  0  0  0  0  0  0
   -4.0899    3.3474   -0.1641 H   0  0  0  0  0  0  0  0  0  0  0  0
   -5.7952    3.7208    0.1137 H   0  0  0  0  0  0  0  0  0  0  0  0
   -8.6269   -0.6378   -0.5045 H   0  0  0  0  0  0  0  0  0  0  0  0
   -0.0849   -0.2705   -1.8246 H   0  0  0  0  0  0  0  0  0  0  0  0
   -0.0727    1.4830   -1.7605 H   0  0  0  0  0  0  0  0  0  0  0  0
   -5.9301   -3.9412    0.0992 H   0  0  0  0  0  0  0  0  0  0  0  0
   -8.1827   -3.0869   -0.4363 H   0  0  0  0  0  0  0  0  0  0  0  0
    1.7281   -1.5925   -0.8387 H   0  0  0  0  0  0  0  0  0  0  0  0
    1.7536    2.7137   -0.7029 H   0  0  0  0  0  0  0  0  0  0  0  0
    4.0828   -1.6430   -0.2466 H   0  0  0  0  0  0  0  0  0  0  0  0
    4.1381    2.6867   -0.1207 H   0  0  0  0  0  0  0  0  0  0  0  0
    6.0852    1.4178    0.6541 H   0  0  0  0  0  0  0  0  0  0  0  0
    6.2277   -1.4497   -0.4932 H   0  0  0  0  0  0  0  0  0  0  0  0
    8.2864   -2.4324   -0.3335 H   0  0  0  0  0  0  0  0  0  0  0  0
   10.1327   -2.4984    0.6938 H   0  0  0  0  0  0  0  0  0  0  0  0
  1 26  2  0  0  0  0
  2  5  1  0  0  0  0
  2 49  1  0  0  0  0
  3  9  1  0  0  0  0
  3 10  1  0  0  0  0
  3 31  1  0  0  0  0
  4 11  1  0  0  0  0
  4 15  1  0  0  0  0
  4 32  1  0  0  0  0
  5 26  1  0  0  0  0
  5 48  1  0  0  0  0
  6  7  1  0  0  0  0
  6  8  1  0  0  0  0
  6  9  2  0  0  0  0
  7 11  1  0  0  0  0
  7 27  1  0  0  0  0
  7 28  1  0  0  0  0
  8 10  1  0  0  0  0
  8 12  2  0  0  0  0
  9 13  1  0  0  0  0
 10 14  2  0  0  0  0
 11 29  1  0  0  0  0
 11 30  1  0  0  0  0
 12 16  1  0  0  0  0
 12 33  1  0  0  0  0
 13 34  1  0  0  0  0
 13 35  1  0  0  0  0
 13 36  1  0  0  0  0
 14 17  1  0  0  0  0
 14 37  1  0  0  0  0
 15 18  1  0  0  0  0
 15 38  1  0  0  0  0
 15 39  1  0  0  0  0
 16 17  2  0  0  0  0
 16 40  1  0  0  0  0
 17 41  1  0  0  0  0
 18 19  2  0  0  0  0
 18 20  1  0  0  0  0
 19 21  1  0  0  0  0
 19 42  1  0  0  0  0
 20 22  2  0  0  0  0
 20 43  1  0  0  0  0
 21 23  2  0  0  0  0
 21 44  1  0  0  0  0
 22 23  1  0  0  0  0
 22 45  1  0  0  0  0
 23 24  1  0  0  0  0
 24 25  2  0  0  0  0
 24 46  1  0  0  0  0
 25 26  1  0  0  0  0
 25 47  1  0  0  0  0
M  END
>  <PUBCHEM_COMPOUND_CID>
6918837

>  <PUBCHEM_CONFORMER_RMSD>
0.8

>  <PUBCHEM_CONFORMER_DIVERSEORDER>
1
102
88
34
119
26
106
109
116
46
45
58
22
126
48
108
20
81
62
37
43
30
94
57
100
67
64
77
13
125
63
2
16
6
36
35
72
80
97
98
120
76
70
7
82
71
124
53
95
84
44
52
38
91
12
113
73
65
107
90
111
75
68
56
31
79
61
78
110
112
60
14
51
117
66
89
99
8
25
121
93
86
55
21
24
96
92
128
27
103
122
9
17
32
115
39
40
42
49
69
118
33
41
15
11
104
127
83
28
129
87
10
114
105
85
29
101
59
74
4
123
19
47
23
50
54
3
18
5

>  <PUBCHEM_MMFF94_PARTIAL_CHARGES>
39
1 -0.57
10 -0.15
11 0.27
12 -0.15
13 0.18
14 -0.15
15 0.41
16 -0.15
17 -0.15
18 -0.14
19 -0.15
2 -0.44
20 -0.15
21 -0.15
22 -0.15
23 0.03
24 -0.18
25 -0.14
26 0.62
3 0.03
31 0.27
32 0.36
33 0.15
37 0.15
4 -0.9
40 0.15
41 0.15
42 0.15
43 0.15
44 0.15
45 0.15
46 0.15
47 0.15
48 0.37
49 0.4
5 -0.39
6 -0.18
7 0.18
9 -0.33

>  <PUBCHEM_EFFECTIVE_ROTOR_COUNT>
8

>  <PUBCHEM_PHARMACOPHORE_FEATURES>
9
1 1 acceptor
1 3 cation
1 3 donor
1 4 cation
1 4 donor
1 5 donor
5 3 6 8 9 10 rings
6 18 19 20 21 22 23 rings
6 8 10 12 14 16 17 rings

>  <PUBCHEM_HEAVY_ATOM_COUNT>
26

>  <PUBCHEM_ATOM_DEF_STEREO_COUNT>
0

>  <PUBCHEM_ATOM_UDEF_STEREO_COUNT>
0

>  <PUBCHEM_BOND_DEF_STEREO_COUNT>
1

>  <PUBCHEM_BOND_UDEF_STEREO_COUNT>
0

>  <PUBCHEM_ISOTOPIC_ATOM_COUNT>
0

>  <PUBCHEM_COMPONENT_COUNT>
1

>  <PUBCHEM_CACTVS_TAUTO_COUNT>
3

>  <PUBCHEM_CONFORMER_ID>
006992B500000001

>  <PUBCHEM_MMFF94_ENERGY>
50.4816

>  <PUBCHEM_FEATURE_SELFOVERLAP>
45.763

>  <PUBCHEM_SHAPE_FINGERPRINT>
10 15 17703789253901292604
100830 39 18411418397745664829
10299344 5 18186804682134679404
10369192 42 9295292729274706017
106641 1 18343579669047730008
11135609 99 18340488966761690446
11315181 36 18334861641214054269
11646440 116 15985108526341918072
12539745 222 18201439109308525184
12539765 74 9223229676871668312
12592606 108 18407759236175687314
12645989 146 18113902684320131629
13885169 127 18410011018113392072
13974486 7 17912074256327829887
14251764 18 18260551143276167380
14428016 248 12391509815571421450
15183329 4 17312818294835875675
15198563 99 15213290882001572606
15461852 350 18411425020183951380
15690457 1 18408882954007249394
19489759 90 18334861628313360617
21130935 74 18341614764037769042
21315763 129 18411703201280182565
21315763 28 18410856577057464344
22224240 67 18410291411480946218
23522609 53 17824573844529060556
23559900 14 18268424819642937705
23576562 1 13696446563545160915
3178227 256 16773799221015669714
33532 11 18260545590200231138
3711267 37 9727361276533576987
4073 2 18041569142785633883
4874694 18 18343016650042646255
5219985 9 17240482499135443308
5470011 282 13479136770913125298
5937810 71 11530753782791347647
59682541 35 17917987296426397688
5969126 39 16878217606474274477
6691757 9 15913319208703665332
67123 10 18410575102882275624
9689198 14 7997970176569474208
99344 41 18411138004731733355
9953998 17 18131636677927156121

>  <PUBCHEM_SHAPE_MULTIPOLES>
508.39
30.6
2.48
0.83
43.05
0.07
0.05
15.6
-5.45
-4.61
-0.16
0.18
-0.1
-0.89

>  <PUBCHEM_SHAPE_SELFOVERLAP>
1087.672

>  <PUBCHEM_SHAPE_VOLUME>
283.3

>  <PUBCHEM_COORDINATE_TYPE>
2
5
10

$$$$
6918638
 OpenBabel10062414423D

 36 37  0  0  0  0  0  0  0  0999 V2000
   -2.8405   -0.4591   -1.2818 S   0  0  0  0  0  0  0  0  0  0  0  0
   -4.0613   -1.2489   -1.3913 O   0  0  0  0  0  0  0  0  0  0  0  0
   -2.1444   -0.0693   -2.5019 O   0  0  0  0  0  0  0  0  0  0  0  0
    4.7765   -1.2033    0.1710 O   0  0  0  0  0  0  0  0  0  0  0  0
    5.7754    1.0582   -0.9261 O   0  0  0  0  0  0  0  0  0  0  0  0
   -3.1936    0.9442   -0.3464 N   0  0  0  0  0  0  0  0  0  0  0  0
    4.3934    0.8437   -0.8315 N   0  0  0  0  0  0  0  0  0  0  0  0
   -1.7293   -1.3361   -0.2600 C   0  0  0  0  0  0  0  0  0  0  0  0
   -0.3568   -1.1103   -0.3659 C   0  0  0  0  0  0  0  0  0  0  0  0
    0.5304   -1.8115    0.4509 C   0  0  0  0  0  0  0  0  0  0  0  0
   -2.2144   -2.2630    0.6628 C   0  0  0  0  0  0  0  0  0  0  0  0
   -2.0902    1.7154    0.1598 C   0  0  0  0  0  0  0  0  0  0  0  0
    0.0450   -2.7382    1.3737 C   0  0  0  0  0  0  0  0  0  0  0  0
   -1.3273   -2.9639    1.4796 C   0  0  0  0  0  0  0  0  0  0  0  0
   -1.1810    2.2786   -0.7276 C   0  0  0  0  0  0  0  0  0  0  0  0
   -1.9457    1.8898    1.5310 C   0  0  0  0  0  0  0  0  0  0  0  0
    1.9617   -1.5769    0.3406 C   0  0  0  0  0  0  0  0  0  0  0  0
   -0.1111    3.0269   -0.2366 C   0  0  0  0  0  0  0  0  0  0  0  0
   -0.8759    2.6383    2.0219 C   0  0  0  0  0  0  0  0  0  0  0  0
    0.0414    3.2068    1.1379 C   0  0  0  0  0  0  0  0  0  0  0  0
    2.5328   -0.4797   -0.2049 C   0  0  0  0  0  0  0  0  0  0  0  0
    4.0148   -0.3416   -0.2554 C   0  0  0  0  0  0  0  0  0  0  0  0
    0.0029   -0.4085   -1.1115 H   0  0  0  0  0  0  0  0  0  0  0  0
   -3.9951    0.8682    0.2936 H   0  0  0  0  0  0  0  0  0  0  0  0
   -3.2794   -2.4496    0.7684 H   0  0  0  0  0  0  0  0  0  0  0  0
    0.7208   -3.2929    2.0201 H   0  0  0  0  0  0  0  0  0  0  0  0
   -1.7053   -3.6838    2.1997 H   0  0  0  0  0  0  0  0  0  0  0  0
   -1.2927    2.1793   -1.8024 H   0  0  0  0  0  0  0  0  0  0  0  0
   -2.6537    1.4492    2.2275 H   0  0  0  0  0  0  0  0  0  0  0  0
    2.5957   -2.3615    0.7483 H   0  0  0  0  0  0  0  0  0  0  0  0
    0.6002    3.4741   -0.9248 H   0  0  0  0  0  0  0  0  0  0  0  0
   -0.7565    2.7777    3.0924 H   0  0  0  0  0  0  0  0  0  0  0  0
    0.8741    3.7898    1.5201 H   0  0  0  0  0  0  0  0  0  0  0  0
    1.9505    0.3448   -0.6009 H   0  0  0  0  0  0  0  0  0  0  0  0
    3.7869    1.5461   -1.2405 H   0  0  0  0  0  0  0  0  0  0  0  0
    5.8254    1.4867   -1.7973 H   0  0  0  0  0  0  0  0  0  0  0  0
  1  2  2  0  0  0  0
  1  3  2  0  0  0  0
  1  6  1  0  0  0  0
  1  8  1  0  0  0  0
  4 22  2  0  0  0  0
  5  7  1  0  0  0  0
  5 36  1  0  0  0  0
  6 12  1  0  0  0  0
  6 24  1  0  0  0  0
  7 22  1  0  0  0  0
  7 35  1  0  0  0  0
  8  9  1  0  0  0  0
  8 11  2  0  0  0  0
  9 10  2  0  0  0  0
  9 23  1  0  0  0  0
 10 13  1  0  0  0  0
 10 17  1  0  0  0  0
 11 14  1  0  0  0  0
 11 25  1  0  0  0  0
 12 15  2  0  0  0  0
 12 16  1  0  0  0  0
 13 14  2  0  0  0  0
 13 26  1  0  0  0  0
 14 27  1  0  0  0  0
 15 18  1  0  0  0  0
 15 28  1  0  0  0  0
 16 19  2  0  0  0  0
 16 29  1  0  0  0  0
 17 21  2  0  0  0  0
 17 30  1  0  0  0  0
 18 20  2  0  0  0  0
 18 31  1  0  0  0  0
 19 20  1  0  0  0  0
 19 32  1  0  0  0  0
 20 33  1  0  0  0  0
 21 22  1  0  0  0  0
 21 34  1  0  0  0  0
M  END
>  <PUBCHEM_COMPOUND_CID>
6918638

>  <PUBCHEM_CONFORMER_RMSD>
0.8

>  <PUBCHEM_CONFORMER_DIVERSEORDER>
1
10
4
27
37
33
8
3
7
28
39
22
2
23
34
38
6
12
19
17
29
25
5
35
21
40
26
32
24
36
30
15
20
14
18
11
9
31
16
13

>  <PUBCHEM_MMFF94_PARTIAL_CHARGES>
36
1 1.45
10 0.03
11 -0.15
12 0.2
13 -0.15
14 -0.15
15 -0.15
16 -0.15
17 -0.18
18 -0.15
19 -0.15
2 -0.65
20 -0.15
21 -0.14
22 0.62
23 0.15
24 0.42
25 0.15
26 0.15
27 0.15
28 0.15
29 0.15
3 -0.65
30 0.15
31 0.15
32 0.15
33 0.15
34 0.15
35 0.37
36 0.4
4 -0.57
5 -0.44
6 -0.76
7 -0.39
8 -0.01
9 -0.15

>  <PUBCHEM_EFFECTIVE_ROTOR_COUNT>
6

>  <PUBCHEM_PHARMACOPHORE_FEATURES>
7
1 2 acceptor
1 3 acceptor
1 4 acceptor
1 6 donor
1 7 donor
6 12 15 16 18 19 20 rings
6 8 9 10 11 13 14 rings

>  <PUBCHEM_HEAVY_ATOM_COUNT>
22

>  <PUBCHEM_ATOM_DEF_STEREO_COUNT>
0

>  <PUBCHEM_ATOM_UDEF_STEREO_COUNT>
0

>  <PUBCHEM_BOND_DEF_STEREO_COUNT>
1

>  <PUBCHEM_BOND_UDEF_STEREO_COUNT>
0

>  <PUBCHEM_ISOTOPIC_ATOM_COUNT>
0

>  <PUBCHEM_COMPONENT_COUNT>
1

>  <PUBCHEM_CACTVS_TAUTO_COUNT>
3

>  <PUBCHEM_CONFORMER_ID>
006991EE00000001

>  <PUBCHEM_MMFF94_ENERGY>
52.2622

>  <PUBCHEM_FEATURE_SELFOVERLAP>
35.539

>  <PUBCHEM_SHAPE_FINGERPRINT>
10871710 139 18338803299440745373
1100329 8 18411709798344363025
11112241 14 16768997829393742000
121448 382 18267013965001963856
12156800 1 17191291469304254841
12539773 59 18272650108397338613
12788726 201 18412823564736193392
128993 33 17407406831831375393
13027679 85 18337677537167430851
13032168 30 18341612581703687840
13965767 371 14740678633325997267
13994607 96 18335436667792403894
14123250 116 18199194988215519040
14251751 93 17766277579136245398
14787075 74 18410011005855958251
14931854 50 18408880750409186180
15183329 4 18189066331021018630
17357779 13 18200874110027475136
17492 54 18334283271805573709
20510252 161 18188215398081419594
20775438 99 16975294832400596287
21141583 151 18343016666895370072
21623110 236 18339932627058752280
23419403 2 18048034366131832307
23557571 272 18267602341362601238
23558518 356 18051132497450849226
394222 165 17242150371858397315
469060 322 16806753817266127074
531348 171 17845946113485323630
6438718 38 17917162601884972200
6786 2 15765591962122656225
81228 2 18341058427922065720

>  <PUBCHEM_SHAPE_MULTIPOLES>
423.16
7.1
4.15
1.69
12.82
1.4
-0.05
-0.06
-3.38
-1.69
2.2
-1.27
0.22
-0.86

>  <PUBCHEM_SHAPE_SELFOVERLAP>
885.221

>  <PUBCHEM_SHAPE_VOLUME>
237.9

>  <PUBCHEM_COORDINATE_TYPE>
2
5
10

$$$$
5311
 OpenBabel10062414423D

 39 39  0  0  0  0  0  0  0  0999 V2000
   -2.2524    1.4364    0.2228 O   0  0  0  0  0  0  0  0  0  0  0  0
    7.3266   -0.0167   -1.2480 O   0  0  0  0  0  0  0  0  0  0  0  0
    8.3998   -1.0588    1.0099 O   0  0  0  0  0  0  0  0  0  0  0  0
   -3.2169   -0.6674   -0.1723 N   0  0  0  0  0  0  0  0  0  0  0  0
    7.1866   -0.3582    1.0343 N   0  0  0  0  0  0  0  0  0  0  0  0
    1.7044   -0.2605   -0.2960 C   0  0  0  0  0  0  0  0  0  0  0  0
    2.8927    0.6907   -0.1359 C   0  0  0  0  0  0  0  0  0  0  0  0
    0.3741    0.4835   -0.1447 C   0  0  0  0  0  0  0  0  0  0  0  0
    4.2232   -0.0580   -0.2561 C   0  0  0  0  0  0  0  0  0  0  0  0
   -0.8308   -0.4488   -0.2654 C   0  0  0  0  0  0  0  0  0  0  0  0
    5.4289    0.8618   -0.0704 C   0  0  0  0  0  0  0  0  0  0  0  0
   -2.1709    0.2427   -0.0470 C   0  0  0  0  0  0  0  0  0  0  0  0
    6.7464    0.1213   -0.1731 C   0  0  0  0  0  0  0  0  0  0  0  0
   -4.6027   -0.4123   -0.0403 C   0  0  0  0  0  0  0  0  0  0  0  0
   -5.5206   -1.4514   -0.1936 C   0  0  0  0  0  0  0  0  0  0  0  0
   -5.0508    0.8778    0.2438 C   0  0  0  0  0  0  0  0  0  0  0  0
   -6.8865   -1.2005   -0.0632 C   0  0  0  0  0  0  0  0  0  0  0  0
   -6.4166    1.1287    0.3743 C   0  0  0  0  0  0  0  0  0  0  0  0
   -7.3345    0.0895    0.2209 C   0  0  0  0  0  0  0  0  0  0  0  0
    1.7459   -0.7424   -1.2802 H   0  0  0  0  0  0  0  0  0  0  0  0
    1.7660   -1.0554    0.4573 H   0  0  0  0  0  0  0  0  0  0  0  0
    2.8430    1.4764   -0.8994 H   0  0  0  0  0  0  0  0  0  0  0  0
    2.8393    1.1846    0.8419 H   0  0  0  0  0  0  0  0  0  0  0  0
    0.3030    1.2718   -0.9046 H   0  0  0  0  0  0  0  0  0  0  0  0
    0.3477    0.9864    0.8302 H   0  0  0  0  0  0  0  0  0  0  0  0
    4.2860   -0.5453   -1.2372 H   0  0  0  0  0  0  0  0  0  0  0  0
    4.2614   -0.8611    0.4907 H   0  0  0  0  0  0  0  0  0  0  0  0
   -0.8414   -0.9078   -1.2615 H   0  0  0  0  0  0  0  0  0  0  0  0
   -0.7458   -1.2557    0.4730 H   0  0  0  0  0  0  0  0  0  0  0  0
    5.4267    1.6492   -0.8335 H   0  0  0  0  0  0  0  0  0  0  0  0
    5.3719    1.3663    0.9019 H   0  0  0  0  0  0  0  0  0  0  0  0
   -2.9751   -1.6329   -0.3853 H   0  0  0  0  0  0  0  0  0  0  0  0
    6.7867   -0.1600    1.9443 H   0  0  0  0  0  0  0  0  0  0  0  0
   -5.1849   -2.4613   -0.4149 H   0  0  0  0  0  0  0  0  0  0  0  0
   -4.4031    1.7332    0.3739 H   0  0  0  0  0  0  0  0  0  0  0  0
   -7.6013   -2.0095   -0.1826 H   0  0  0  0  0  0  0  0  0  0  0  0
   -6.7670    2.1329    0.5950 H   0  0  0  0  0  0  0  0  0  0  0  0
   -8.3980    0.2850    0.3224 H   0  0  0  0  0  0  0  0  0  0  0  0
    8.0700   -1.9715    0.9521 H   0  0  0  0  0  0  0  0  0  0  0  0
  1 12  2  0  0  0  0
  2 13  2  0  0  0  0
  3  5  1  0  0  0  0
  3 39  1  0  0  0  0
  4 12  1  0  0  0  0
  4 14  1  0  0  0  0
  4 32  1  0  0  0  0
  5 13  1  0  0  0  0
  5 33  1  0  0  0  0
  6  7  1  0  0  0  0
  6  8  1  0  0  0  0
  6 20  1  0  0  0  0
  6 21  1  0  0  0  0
  7  9  1  0  0  0  0
  7 22  1  0  0  0  0
  7 23  1  0  0  0  0
  8 10  1  0  0  0  0
  8 24  1  0  0  0  0
  8 25  1  0  0  0  0
  9 11  1  0  0  0  0
  9 26  1  0  0  0  0
  9 27  1  0  0  0  0
 10 12  1  0  0  0  0
 10 28  1  0  0  0  0
 10 29  1  0  0  0  0
 11 13  1  0  0  0  0
 11 30  1  0  0  0  0
 11 31  1  0  0  0  0
 14 15  2  0  0  0  0
 14 16  1  0  0  0  0
 15 17  1  0  0  0  0
 15 34  1  0  0  0  0
 16 18  2  0  0  0  0
 16 35  1  0  0  0  0
 17 19  2  0  0  0  0
 17 36  1  0  0  0  0
 18 19  1  0  0  0  0
 18 37  1  0  0  0  0
 19 38  1  0  0  0  0
M  END
>  <PUBCHEM_COMPOUND_CID>
5311

>  <PUBCHEM_CONFORMER_RMSD>
1

>  <PUBCHEM_CONFORMER_DIVERSEORDER>
1
12
78
26
28
126
104
45
22
117
114
33
107
4
27
39
138
79
5
2
16
134
6
69
85
140
40
121
103
127
65
128
135
29
76
95
18
23
25
139
90
19
57
109
89
31
60
15
115
106
42
74
88
112
99
133
9
41
142
143
132
51
129
96
53
124
24
50
87
75
136
70
73
14
10
122
108
111
91
110
3
94
63
61
118
83
123
44
37
32
62
81
30
7
36
34
119
38
54
105
13
48
92
93
98
77
66
130
141
8
82
97
47
21
17
52
20
125
56
101
131
59
49
120
137
80
113
86
35
11
100
43
71
68
46
116
58
144
64
67
102
72
55
84

>  <PUBCHEM_MMFF94_PARTIAL_CHARGES>
23
1 -0.57
10 0.06
11 0.06
12 0.57
13 0.57
14 0.12
15 -0.15
16 -0.15
17 -0.15
18 -0.15
19 -0.15
2 -0.57
3 -0.44
32 0.37
33 0.37
34 0.15
35 0.15
36 0.15
37 0.15
38 0.15
39 0.4
4 -0.55
5 -0.39

>  <PUBCHEM_EFFECTIVE_ROTOR_COUNT>
10

>  <PUBCHEM_PHARMACOPHORE_FEATURES>
7
1 1 acceptor
1 2 acceptor
1 4 donor
1 5 donor
3 6 8 10 hydrophobe
3 7 9 11 hydrophobe
6 14 15 16 17 18 19 rings

>  <PUBCHEM_HEAVY_ATOM_COUNT>
19

>  <PUBCHEM_ATOM_DEF_STEREO_COUNT>
0

>  <PUBCHEM_ATOM_UDEF_STEREO_COUNT>
0

>  <PUBCHEM_BOND_DEF_STEREO_COUNT>
0

>  <PUBCHEM_BOND_UDEF_STEREO_COUNT>
0

>  <PUBCHEM_ISOTOPIC_ATOM_COUNT>
0

>  <PUBCHEM_COMPONENT_COUNT>
1

>  <PUBCHEM_CACTVS_TAUTO_COUNT>
6

>  <PUBCHEM_CONFORMER_ID>
000014BF00000001

>  <PUBCHEM_MMFF94_ENERGY>
35.8433

>  <PUBCHEM_FEATURE_SELFOVERLAP>
35.52

>  <PUBCHEM_SHAPE_FINGERPRINT>
10 15 17846775239620172600
10299344 5 18113900463911294186
11315181 36 10664101160716122183
11524674 6 16845855715384066023
11719270 70 17989209235689087990
12091667 2 17022620880156611949
12166972 35 18113338635029539236
125118 31 17132116849146690600
13073987 5 16988291867588956506
13533116 47 17603576405570845706
13885169 127 18343022159789386857
14251764 18 18333168371004176730
14251764 46 17632296779007190646
14729087 3 17060340699941314097
14933364 13 18272653462803609009
15419008 47 17275099514275868568
15716309 27 18113899372630826999
17093844 174 17489586762718217867
20281389 69 18335137609525993220
20621476 8 17821726122312813181
20735858 18 18060699494484975102
21315763 28 18409166645012966045
22224240 67 15770056137992002740
23035841 295 18334294279363635027
23521765 1 18341896298478948308
23559900 14 18130783495511260985
246663 6 16443345356463571826
28498 318 17676482827001884374
33532 11 17895187776063322386
33684 2 18410292505895610463
4073 2 18187932853720928442
4325135 7 18407760339623502103
57583515 80 18333454257265520545
59755656 520 17894627093251525731
67123 10 18410012152981647412
8209 1 18410576192812211645

>  <PUBCHEM_SHAPE_MULTIPOLES>
363.44
27.06
1.17
0.78
28.77
0.01
-0.02
4.09
-3.32
-1.42
-0.07
1.12
0.07
-0.83

>  <PUBCHEM_SHAPE_SELFOVERLAP>
722.945

>  <PUBCHEM_SHAPE_VOLUME>
213.9

>  <PUBCHEM_COORDINATE_TYPE>
2
5
10

$$$$
122738
 OpenBabel10062414423D

 68 73  0  0  1  0  0  0  0  0999 V2000
   -3.3226   -0.4447   -1.1163 O   0  0  0  0  0  0  0  0  0  0  0  0
    2.0156   -0.1091    0.5140 O   0  0  0  0  0  0  0  0  0  0  0  0
   -0.9564    1.1853   -1.5935 O   0  0  0  0  0  0  0  0  0  0  0  0
    4.4888   -1.4153    1.2012 O   0  0  0  0  0  0  0  0  0  0  0  0
   -1.9995   -2.4987    1.3499 O   0  0  0  0  0  0  0  0  0  0  0  0
    1.3766   -2.4811    4.6900 O   0  0  0  0  0  0  0  0  0  0  0  0
    0.4806   -3.4562   -1.2304 O   0  0  0  0  0  0  0  0  0  0  0  0
   -3.7106   -4.7334   -3.0736 O   0  0  0  0  0  0  0  0  0  0  0  0
   -4.2134    4.1346    2.6001 O   0  0  0  0  0  0  0  0  0  0  0  0
   -5.2801    5.3570    0.3438 O   0  0  0  0  0  0  0  0  0  0  0  0
    4.9391    0.6436   -3.4522 O   0  0  0  0  0  0  0  0  0  0  0  0
    6.1759    3.0853   -2.9713 O   0  0  0  0  0  0  0  0  0  0  0  0
   -0.4776   -0.8751   -0.4282 C   0  0  1  0  0  0  0  0  0  0  0  0
   -1.1781    0.4972   -0.3563 C   0  0  2  0  0  0  0  0  0  0  0  0
    0.0351   -1.2973    0.9438 C   0  0  0  0  0  0  0  0  0  0  0  0
   -2.6839    0.3382   -0.0985 C   0  0  1  0  0  0  0  0  0  0  0  0
   -1.3618   -1.9047   -1.1069 C   0  0  0  0  0  0  0  0  0  0  0  0
    1.2951   -0.8849    1.3851 C   0  0  0  0  0  0  0  0  0  0  0  0
    1.7748   -1.2922    2.6365 C   0  0  0  0  0  0  0  0  0  0  0  0
    3.9855   -0.3276    1.9779 C   0  0  1  0  0  0  0  0  0  0  0  0
    3.1242    0.5911    1.1014 C   0  0  1  0  0  0  0  0  0  0  0  0
    3.1375   -0.8782    3.1227 C   0  0  0  0  0  0  0  0  0  0  0  0
   -2.7046   -1.6337   -1.4033 C   0  0  0  0  0  0  0  0  0  0  0  0
   -0.7653   -2.0935    1.7615 C   0  0  0  0  0  0  0  0  0  0  0  0
   -3.3787    1.6828    0.0232 C   0  0  0  0  0  0  0  0  0  0  0  0
   -0.8254   -3.1480   -1.4808 C   0  0  0  0  0  0  0  0  0  0  0  0
    0.9571   -2.0838    3.4543 C   0  0  0  0  0  0  0  0  0  0  0  0
   -0.3066   -2.4831    3.0178 C   0  0  0  0  0  0  0  0  0  0  0  0
    3.9405    1.2563    0.0089 C   0  0  0  0  0  0  0  0  0  0  0  0
   -3.4872   -2.5801   -2.0713 C   0  0  0  0  0  0  0  0  0  0  0  0
   -1.6132   -4.0968   -2.1334 C   0  0  0  0  0  0  0  0  0  0  0  0
   -3.4808    2.3020    1.2676 C   0  0  0  0  0  0  0  0  0  0  0  0
   -2.9433   -3.8119   -2.4297 C   0  0  0  0  0  0  0  0  0  0  0  0
   -3.9134    2.2941   -1.1095 C   0  0  0  0  0  0  0  0  0  0  0  0
    4.0694    0.6413   -1.2354 C   0  0  0  0  0  0  0  0  0  0  0  0
    4.5607    2.4811    0.2516 C   0  0  0  0  0  0  0  0  0  0  0  0
   -4.1196    3.5370    1.3797 C   0  0  0  0  0  0  0  0  0  0  0  0
   -4.5521    3.5289   -0.9975 C   0  0  0  0  0  0  0  0  0  0  0  0
   -4.6552    4.1505    0.2470 C   0  0  0  0  0  0  0  0  0  0  0  0
    4.8203    1.2525   -2.2396 C   0  0  0  0  0  0  0  0  0  0  0  0
    5.3114    3.0923   -0.7524 C   0  0  0  0  0  0  0  0  0  0  0  0
    5.4412    2.4782   -1.9980 C   0  0  0  0  0  0  0  0  0  0  0  0
    0.3854   -0.7693   -1.1020 H   0  0  0  0  0  0  0  0  0  0  0  0
   -0.7225    1.1280    0.4166 H   0  0  0  0  0  0  0  0  0  0  0  0
   -2.8522   -0.1822    0.8523 H   0  0  0  0  0  0  0  0  0  0  0  0
    4.8498    0.2031    2.3945 H   0  0  0  0  0  0  0  0  0  0  0  0
    2.6943    1.3920    1.7210 H   0  0  0  0  0  0  0  0  0  0  0  0
    3.0057   -0.1038    3.8881 H   0  0  0  0  0  0  0  0  0  0  0  0
    3.6489   -1.7370    3.5733 H   0  0  0  0  0  0  0  0  0  0  0  0
   -0.9332   -3.1004    3.6572 H   0  0  0  0  0  0  0  0  0  0  0  0
   -1.3917    0.6804   -2.3010 H   0  0  0  0  0  0  0  0  0  0  0  0
   -4.5247   -2.3577   -2.3098 H   0  0  0  0  0  0  0  0  0  0  0  0
   -1.1883   -5.0564   -2.4182 H   0  0  0  0  0  0  0  0  0  0  0  0
   -3.0603    1.8238    2.1490 H   0  0  0  0  0  0  0  0  0  0  0  0
   -3.8378    1.8334   -2.0904 H   0  0  0  0  0  0  0  0  0  0  0  0
    5.1898   -1.0679    0.6246 H   0  0  0  0  0  0  0  0  0  0  0  0
    3.5958   -0.3176   -1.4307 H   0  0  0  0  0  0  0  0  0  0  0  0
    4.4688    2.9681    1.2187 H   0  0  0  0  0  0  0  0  0  0  0  0
   -2.4059   -3.0415    2.0468 H   0  0  0  0  0  0  0  0  0  0  0  0
    0.6815   -3.0188    5.1065 H   0  0  0  0  0  0  0  0  0  0  0  0
    0.6683   -4.3521   -1.5589 H   0  0  0  0  0  0  0  0  0  0  0  0
   -4.9654    4.0027   -1.8837 H   0  0  0  0  0  0  0  0  0  0  0  0
    5.7902    4.0467   -0.5507 H   0  0  0  0  0  0  0  0  0  0  0  0
   -3.1741   -5.5262   -3.2459 H   0  0  0  0  0  0  0  0  0  0  0  0
   -3.7878    3.5665    3.2650 H   0  0  0  0  0  0  0  0  0  0  0  0
   -5.2590    5.6386    1.2750 H   0  0  0  0  0  0  0  0  0  0  0  0
    4.4435   -0.1932   -3.4375 H   0  0  0  0  0  0  0  0  0  0  0  0
    6.5291    3.9229   -2.6254 H   0  0  0  0  0  0  0  0  0  0  0  0
  1 16  1  0  0  0  0
  1 23  1  0  0  0  0
  2 18  1  0  0  0  0
  2 21  1  0  0  0  0
  3 14  1  0  0  0  0
  3 51  1  0  0  0  0
  4 20  1  0  0  0  0
  4 56  1  0  0  0  0
  5 24  1  0  0  0  0
  5 59  1  0  0  0  0
  6 27  1  0  0  0  0
  6 60  1  0  0  0  0
  7 26  1  0  0  0  0
  7 61  1  0  0  0  0
  8 33  1  0  0  0  0
  8 64  1  0  0  0  0
  9 37  1  0  0  0  0
  9 65  1  0  0  0  0
 10 39  1  0  0  0  0
 10 66  1  0  0  0  0
 11 40  1  0  0  0  0
 11 67  1  0  0  0  0
 12 42  1  0  0  0  0
 12 68  1  0  0  0  0
 13 14  1  0  0  0  0
 13 15  1  0  0  0  0
 13 17  1  0  0  0  0
 13 43  1  6  0  0  0
 14 16  1  0  0  0  0
 14 44  1  1  0  0  0
 15 18  1  0  0  0  0
 15 24  2  0  0  0  0
 16 25  1  0  0  0  0
 16 45  1  1  0  0  0
 17 23  1  0  0  0  0
 17 26  2  0  0  0  0
 18 19  2  0  0  0  0
 19 22  1  0  0  0  0
 19 27  1  0  0  0  0
 20 21  1  0  0  0  0
 20 22  1  0  0  0  0
 20 46  1  1  0  0  0
 21 29  1  0  0  0  0
 21 47  1  1  0  0  0
 22 48  1  0  0  0  0
 22 49  1  0  0  0  0
 23 30  2  0  0  0  0
 24 28  1  0  0  0  0
 25 32  2  0  0  0  0
 25 34  1  0  0  0  0
 26 31  1  0  0  0  0
 27 28  2  0  0  0  0
 28 50  1  0  0  0  0
 29 35  2  0  0  0  0
 29 36  1  0  0  0  0
 30 33  1  0  0  0  0
 30 52  1  0  0  0  0
 31 33  2  0  0  0  0
 31 53  1  0  0  0  0
 32 37  1  0  0  0  0
 32 54  1  0  0  0  0
 34 38  2  0  0  0  0
 34 55  1  0  0  0  0
 35 40  1  0  0  0  0
 35 57  1  0  0  0  0
 36 41  2  0  0  0  0
 36 58  1  0  0  0  0
 37 39  2  0  0  0  0
 38 39  1  0  0  0  0
 38 62  1  0  0  0  0
 40 42  2  0  0  0  0
 41 42  1  0  0  0  0
 41 63  1  0  0  0  0
M  END
>  <PUBCHEM_COMPOUND_CID>
122738

>  <PUBCHEM_CONFORMER_RMSD>
1

>  <PUBCHEM_CONFORMER_DIVERSEORDER>
7
41
20
17
47
4
11
52
15
9
28
6
25
10
12
51
36
2
40
44
23
35
27
43
49
26
16
31
32
42
18
3
29
24
22
13
48
37
8
1
39
14
34
46
50
45
5
38
30
21
33
19

>  <PUBCHEM_MMFF94_PARTIAL_CHARGES>
61
1 -0.36
10 -0.53
11 -0.53
12 -0.53
13 0.29
14 0.28
15 -0.14
16 0.42
17 -0.14
18 0.08
19 -0.14
2 -0.36
20 0.28
21 0.42
22 0.14
23 0.08
24 0.08
25 -0.14
26 0.08
27 0.08
28 -0.15
29 -0.14
3 -0.68
30 -0.15
31 -0.15
32 -0.15
33 0.08
34 -0.15
35 -0.15
36 -0.15
37 0.08
38 -0.15
39 0.08
4 -0.68
40 0.08
41 -0.15
42 0.08
5 -0.53
50 0.15
51 0.4
52 0.15
53 0.15
54 0.15
55 0.15
56 0.4
57 0.15
58 0.15
59 0.45
6 -0.53
60 0.45
61 0.45
62 0.15
63 0.15
64 0.45
65 0.45
66 0.45
67 0.45
68 0.45
7 -0.53
8 -0.53
9 -0.53

>  <PUBCHEM_EFFECTIVE_ROTOR_COUNT>
4.6

>  <PUBCHEM_PHARMACOPHORE_FEATURES>
20
1 1 acceptor
1 10 donor
1 11 donor
1 12 donor
1 2 acceptor
1 3 acceptor
1 3 donor
1 4 acceptor
1 4 donor
1 5 donor
1 6 donor
1 7 donor
1 8 donor
1 9 donor
6 1 13 14 16 17 23 rings
6 15 18 19 24 27 28 rings
6 17 23 26 30 31 33 rings
6 2 18 19 20 21 22 rings
6 25 32 34 37 38 39 rings
6 29 35 36 40 41 42 rings

>  <PUBCHEM_HEAVY_ATOM_COUNT>
42

>  <PUBCHEM_ATOM_DEF_STEREO_COUNT>
5

>  <PUBCHEM_ATOM_UDEF_STEREO_COUNT>
0

>  <PUBCHEM_BOND_DEF_STEREO_COUNT>
0

>  <PUBCHEM_BOND_UDEF_STEREO_COUNT>
0

>  <PUBCHEM_ISOTOPIC_ATOM_COUNT>
0

>  <PUBCHEM_COMPONENT_COUNT>
1

>  <PUBCHEM_CACTVS_TAUTO_COUNT>
986

>  <PUBCHEM_CONFORMER_ID>
0001DF7200000007

>  <PUBCHEM_MMFF94_ENERGY>
134.7637

>  <PUBCHEM_FEATURE_SELFOVERLAP>
101.584

>  <PUBCHEM_SHAPE_FINGERPRINT>
10794284 68 18193575569607787883
10842051 180 17749961093426841033
11049842 53 17985532377994384182
11093857 51 17698718108584291901
11115154 58 17836071644332655455
11505856 67 18336830883292132493
11763715 3 17763703918858510619
12788726 201 18195507389567373959
13617811 41 18200293542434886167
13782708 43 16342855615396603911
14395042 70 17266977267584586665
15198563 99 18056476386492514301
15297060 5 17630594635980878145
15448158 71 18041832901339545548
15968369 153 17833573548939002080
16991981 162 18272097135816755177
19309040 13 18116455737872262548
19311894 1 18271812345157141796
19319366 153 17968095279240590456
21033650 10 18339083817098347136
21458453 9 14779563282595622825
21756936 100 18114194068028856920
21772528 278 17605865644514924556
22122407 14 17169814588551808101
23559900 14 17266366987354617949
24180151 214 17606385799356283715
27425 322 18115035103770804775
3178227 256 17242462607971078920
50150288 127 18335702788683317147
5223283 242 13901617469181887129
550186 7 18192739875813510323
57527295 17 18337960086619240652
57527306 92 18049747375394315643
57527585 21 18117281565283252982
6058803 2 18190717830632405194
6523845 18 17774732965535437001
6608658 132 18265608956513833757
6700243 42 17629761429352257926

>  <PUBCHEM_SHAPE_MULTIPOLES>
793.91
11.83
6.61
4.08
9.68
2.62
1.92
15.82
-6.47
-10.47
-1.75
2.99
-3.3
-7.96

>  <PUBCHEM_SHAPE_SELFOVERLAP>
1788.776

>  <PUBCHEM_SHAPE_VOLUME>
411.1

>  <PUBCHEM_COORDINATE_TYPE>
2
5
10

$$$$
107905
 OpenBabel10062414423D

 50 53  0  0  1  0  0  0  0  0999 V2000
   -1.4133   -1.6739   -0.5726 O   0  0  0  0  0  0  0  0  0  0  0  0
   -0.2736    0.5108    0.9183 O   0  0  0  0  0  0  0  0  0  0  0  0
    2.2462   -3.3954    2.0954 O   0  0  0  0  0  0  0  0  0  0  0  0
    1.5821   -4.8636   -2.3818 O   0  0  0  0  0  0  0  0  0  0  0  0
   -3.7707    2.3588   -2.3133 O   0  0  0  0  0  0  0  0  0  0  0  0
    0.7055    1.2511    2.8657 O   0  0  0  0  0  0  0  0  0  0  0  0
   -6.0581    2.5757   -0.7490 O   0  0  0  0  0  0  0  0  0  0  0  0
    3.3323    0.7680   -2.4011 O   0  0  0  0  0  0  0  0  0  0  0  0
    4.2054    4.3210    0.6897 O   0  0  0  0  0  0  0  0  0  0  0  0
    4.7837    3.0156   -1.6836 O   0  0  0  0  0  0  0  0  0  0  0  0
   -0.9784   -0.5444    1.5737 C   0  0  1  0  0  0  0  0  0  0  0  0
   -2.0171   -1.1537    0.6228 C   0  0  1  0  0  0  0  0  0  0  0  0
    0.0153   -1.6236    1.9989 C   0  0  0  0  0  0  0  0  0  0  0  0
    0.4152   -2.4823    0.8294 C   0  0  0  0  0  0  0  0  0  0  0  0
   -0.3134   -2.4661   -0.3667 C   0  0  0  0  0  0  0  0  0  0  0  0
   -3.0974   -0.1546    0.2523 C   0  0  0  0  0  0  0  0  0  0  0  0
    1.5248   -3.3313    0.9393 C   0  0  0  0  0  0  0  0  0  0  0  0
    0.0869   -3.2558   -1.4478 C   0  0  0  0  0  0  0  0  0  0  0  0
   -2.9408    0.6547   -0.8720 C   0  0  0  0  0  0  0  0  0  0  0  0
   -4.2442   -0.0468    1.0375 C   0  0  0  0  0  0  0  0  0  0  0  0
    1.9148   -4.1297   -0.1365 C   0  0  0  0  0  0  0  0  0  0  0  0
    1.1985   -4.0886   -1.3307 C   0  0  0  0  0  0  0  0  0  0  0  0
    0.6948    1.1186    1.6517 C   0  0  0  0  0  0  0  0  0  0  0  0
   -3.9334    1.5737   -1.2119 C   0  0  0  0  0  0  0  0  0  0  0  0
   -5.2369    0.8721    0.6975 C   0  0  0  0  0  0  0  0  0  0  0  0
   -5.0814    1.6824   -0.4271 C   0  0  0  0  0  0  0  0  0  0  0  0
    1.7766    1.6220    0.7680 C   0  0  0  0  0  0  0  0  0  0  0  0
    2.4837    2.7431    1.1512 C   0  0  0  0  0  0  0  0  0  0  0  0
    2.0424    0.9513   -0.4083 C   0  0  0  0  0  0  0  0  0  0  0  0
    3.0601    1.4226   -1.2377 C   0  0  0  0  0  0  0  0  0  0  0  0
    3.5011    3.2145    0.3215 C   0  0  0  0  0  0  0  0  0  0  0  0
    3.7894    2.5542   -0.8729 C   0  0  0  0  0  0  0  0  0  0  0  0
   -1.4776   -0.1274    2.4583 H   0  0  0  0  0  0  0  0  0  0  0  0
   -2.5134   -2.0023    1.1165 H   0  0  0  0  0  0  0  0  0  0  0  0
   -0.4723   -2.2800    2.7315 H   0  0  0  0  0  0  0  0  0  0  0  0
    0.9090   -1.2118    2.4756 H   0  0  0  0  0  0  0  0  0  0  0  0
   -0.4766   -3.2222   -2.3774 H   0  0  0  0  0  0  0  0  0  0  0  0
   -2.0451    0.5842   -1.4840 H   0  0  0  0  0  0  0  0  0  0  0  0
   -4.3754   -0.6708    1.9174 H   0  0  0  0  0  0  0  0  0  0  0  0
    2.7779   -4.7856   -0.0520 H   0  0  0  0  0  0  0  0  0  0  0  0
   -6.1260    0.9468    1.3180 H   0  0  0  0  0  0  0  0  0  0  0  0
    2.9725   -4.0326    1.9840 H   0  0  0  0  0  0  0  0  0  0  0  0
    0.9746   -4.7094   -3.1257 H   0  0  0  0  0  0  0  0  0  0  0  0
    2.2557    3.2581    2.0804 H   0  0  0  0  0  0  0  0  0  0  0  0
    1.4904    0.0637   -0.7005 H   0  0  0  0  0  0  0  0  0  0  0  0
   -2.9192    2.1458   -2.7323 H   0  0  0  0  0  0  0  0  0  0  0  0
   -6.7750    2.5106   -0.0948 H   0  0  0  0  0  0  0  0  0  0  0  0
    2.7301    0.0091   -2.4874 H   0  0  0  0  0  0  0  0  0  0  0  0
    3.8679    4.6427    1.5433 H   0  0  0  0  0  0  0  0  0  0  0  0
    5.1761    3.8041   -1.2701 H   0  0  0  0  0  0  0  0  0  0  0  0
  1 12  1  0  0  0  0
  1 15  1  0  0  0  0
  2 11  1  0  0  0  0
  2 23  1  0  0  0  0
  3 17  1  0  0  0  0
  3 42  1  0  0  0  0
  4 22  1  0  0  0  0
  4 43  1  0  0  0  0
  5 24  1  0  0  0  0
  5 46  1  0  0  0  0
  6 23  2  0  0  0  0
  7 26  1  0  0  0  0
  7 47  1  0  0  0  0
  8 30  1  0  0  0  0
  8 48  1  0  0  0  0
  9 31  1  0  0  0  0
  9 49  1  0  0  0  0
 10 32  1  0  0  0  0
 10 50  1  0  0  0  0
 11 12  1  0  0  0  0
 11 13  1  0  0  0  0
 11 33  1  1  0  0  0
 12 16  1  0  0  0  0
 12 34  1  1  0  0  0
 13 14  1  0  0  0  0
 13 35  1  0  0  0  0
 13 36  1  0  0  0  0
 14 15  1  0  0  0  0
 14 17  2  0  0  0  0
 15 18  2  0  0  0  0
 16 19  2  0  0  0  0
 16 20  1  0  0  0  0
 17 21  1  0  0  0  0
 18 22  1  0  0  0  0
 18 37  1  0  0  0  0
 19 24  1  0  0  0  0
 19 38  1  0  0  0  0
 20 25  2  0  0  0  0
 20 39  1  0  0  0  0
 21 22  2  0  0  0  0
 21 40  1  0  0  0  0
 23 27  1  0  0  0  0
 24 26  2  0  0  0  0
 25 26  1  0  0  0  0
 25 41  1  0  0  0  0
 27 28  2  0  0  0  0
 27 29  1  0  0  0  0
 28 31  1  0  0  0  0
 28 44  1  0  0  0  0
 29 30  2  0  0  0  0
 29 45  1  0  0  0  0
 30 32  1  0  0  0  0
 31 32  2  0  0  0  0
M  END
>  <PUBCHEM_COMPOUND_CID>
107905

>  <PUBCHEM_CONFORMER_RMSD>
0.8

>  <PUBCHEM_CONFORMER_DIVERSEORDER>
1
21
42
76
44
60
78
67
46
75
71
56
33
72
64
65
40
34
55
13
23
69
2
74
53
43
73
39
32
70
47
51
31
36
5
66
77
41
15
49
11
38
59
35
62
14
63
16
12
6
4
61
52
58
9
7
50
19
37
3
48
80
17
8
26
54
28
30
45
22
57
18
79
68
10
27
29
20
25
24

>  <PUBCHEM_MMFF94_PARTIAL_CHARGES>
46
1 -0.36
10 -0.53
11 0.28
12 0.42
13 0.14
14 -0.14
15 0.08
16 -0.14
17 0.08
18 -0.15
19 -0.15
2 -0.43
20 -0.15
21 -0.15
22 0.08
23 0.63
24 0.08
25 -0.15
26 0.08
27 0.09
28 -0.15
29 -0.15
3 -0.53
30 0.08
31 0.08
32 0.08
37 0.15
38 0.15
39 0.15
4 -0.53
40 0.15
41 0.15
42 0.45
43 0.45
44 0.15
45 0.15
46 0.45
47 0.45
48 0.45
49 0.45
5 -0.53
50 0.45
6 -0.57
7 -0.53
8 -0.53
9 -0.53

>  <PUBCHEM_EFFECTIVE_ROTOR_COUNT>
4.8

>  <PUBCHEM_PHARMACOPHORE_FEATURES>
13
1 1 acceptor
1 10 donor
1 3 donor
1 4 donor
1 5 donor
1 6 acceptor
1 7 donor
1 8 donor
1 9 donor
6 1 11 12 13 14 15 rings
6 14 15 17 18 21 22 rings
6 16 19 20 24 25 26 rings
6 27 28 29 30 31 32 rings

>  <PUBCHEM_HEAVY_ATOM_COUNT>
32

>  <PUBCHEM_ATOM_DEF_STEREO_COUNT>
2

>  <PUBCHEM_ATOM_UDEF_STEREO_COUNT>
0

>  <PUBCHEM_BOND_DEF_STEREO_COUNT>
0

>  <PUBCHEM_BOND_UDEF_STEREO_COUNT>
0

>  <PUBCHEM_ISOTOPIC_ATOM_COUNT>
0

>  <PUBCHEM_COMPONENT_COUNT>
1

>  <PUBCHEM_CACTVS_TAUTO_COUNT>
998

>  <PUBCHEM_CONFORMER_ID>
0001A58100000001

>  <PUBCHEM_MMFF94_ENERGY>
96.2552

>  <PUBCHEM_FEATURE_SELFOVERLAP>
66.019

>  <PUBCHEM_SHAPE_FINGERPRINT>
10165383 225 18268729353671085905
10190108 129 17982745370444851195
10369192 42 18188786062080869749
10675989 125 18271817799849984736
10721379 63 18266468598386143737
107951 10 18043264637224412450
11477941 20 17190973470464308134
11488393 25 18263654973969040811
11578080 2 17535793704236295651
11720765 8 17983008956054072956
11763715 3 16628836167630556915
12160290 23 17690819573654013043
12422481 6 17756103914150593562
12741549 16 17692228761029296937
12788726 201 17546144755212533450
133893 2 18193293904797747305
13681431 1 18053659175113229091
140371 6 18126007061732968323
151778 21 18409725153933383881
15210252 30 17543630825244547117
15463212 79 17902778992734233056
15664445 248 17905891379266522259
16988056 13 17761192342216442373
17357779 13 17337005124344216747
17899979 19 18115877300641817810
1813 80 17767962031129502235
18785283 64 18337945684987391675
20600515 1 17762046649760690987
21033648 29 18268153243442744288
21304303 282 17767089345050525990
21641784 216 17551809018676615102
21857420 4 17400343560623833349
23419403 2 17542281934968301995
23559900 14 18119518844302542931
24893989 43 15380973917114582396
25019877 29 17910410694627212727
26353 1 17693089665411521527
3298306 158 18409174320008715154
3411729 13 18261393313200697945
376196 1 18261110802635715897
4015057 19 16915397717112493976
4394409 98 18339378409258666942
44802255 64 17900005981923383492
46194498 28 18192988232645177637
5081480 168 17974286517726548725
5252454 2 18341047501894874113
5265222 85 18044680795690405756

>  <PUBCHEM_SHAPE_MULTIPOLES>
599.85
9.1
6.32
2.24
10.12
5.19
-0.02
-12.66
-3.22
-7.71
-1.95
-0.86
0.39
0.97

>  <PUBCHEM_SHAPE_SELFOVERLAP>
1336.642

>  <PUBCHEM_SHAPE_VOLUME>
316.7

>  <PUBCHEM_COORDINATE_TYPE>
2
5
10

$$$$
1130
 OpenBabel10062414423D

 35 36  0  0  0  0  0  0  0  0999 V2000
    1.9482   -1.4031    1.1960 S   0  0  0  0  0  0  0  0  0  0  0  0
    6.4560    0.0914    0.4466 O   0  0  0  0  0  0  0  0  0  0  0  0
    0.6647   -0.1068   -0.4941 N   0  3  0  0  0  0  0  0  0  0  0  0
   -3.7201   -0.8639    0.0404 N   0  0  0  0  0  0  0  0  0  0  0  0
   -3.3468    1.4253    0.6944 N   0  0  0  0  0  0  0  0  0  0  0  0
   -2.1229   -2.0011   -1.2937 N   0  0  0  0  0  0  0  0  0  0  0  0
    1.8552    0.5579   -0.4189 C   0  0  0  0  0  0  0  0  0  0  0  0
   -0.4220    0.3112   -1.3825 C   0  0  0  0  0  0  0  0  0  0  0  0
    2.7054   -0.0313    0.4863 C   0  0  0  0  0  0  0  0  0  0  0  0
    4.0761    0.3463    0.8836 C   0  0  0  0  0  0  0  0  0  0  0  0
   -1.7205    0.2785   -0.6599 C   0  0  0  0  0  0  0  0  0  0  0  0
    0.5294   -1.1531    0.2735 C   0  0  0  0  0  0  0  0  0  0  0  0
    2.0649    1.7455   -1.2600 C   0  0  0  0  0  0  0  0  0  0  0  0
    5.1629   -0.3197    0.0205 C   0  0  0  0  0  0  0  0  0  0  0  0
   -2.5409   -0.8301   -0.6145 C   0  0  0  0  0  0  0  0  0  0  0  0
   -2.1791    1.3888    0.0193 C   0  0  0  0  0  0  0  0  0  0  0  0
   -4.0566    0.2813    0.6640 C   0  0  0  0  0  0  0  0  0  0  0  0
   -5.3540    0.2828    1.3990 C   0  0  0  0  0  0  0  0  0  0  0  0
   -0.4020   -0.3228   -2.2751 H   0  0  0  0  0  0  0  0  0  0  0  0
   -0.2781    1.3283   -1.7588 H   0  0  0  0  0  0  0  0  0  0  0  0
    4.2626    0.1017    1.9377 H   0  0  0  0  0  0  0  0  0  0  0  0
    4.1989    1.4358    0.8324 H   0  0  0  0  0  0  0  0  0  0  0  0
   -0.3095   -1.8183    0.3642 H   0  0  0  0  0  0  0  0  0  0  0  0
    1.9023    1.5202   -2.3189 H   0  0  0  0  0  0  0  0  0  0  0  0
    1.4056    2.5652   -0.9571 H   0  0  0  0  0  0  0  0  0  0  0  0
    3.0918    2.1165   -1.1767 H   0  0  0  0  0  0  0  0  0  0  0  0
    5.0461   -0.0562   -1.0363 H   0  0  0  0  0  0  0  0  0  0  0  0
    5.1119   -1.4104    0.1021 H   0  0  0  0  0  0  0  0  0  0  0  0
   -1.6093    2.3123    0.0493 H   0  0  0  0  0  0  0  0  0  0  0  0
   -1.6183   -1.9106   -2.1653 H   0  0  0  0  0  0  0  0  0  0  0  0
   -2.7405   -2.8004   -1.2117 H   0  0  0  0  0  0  0  0  0  0  0  0
    6.4969    1.0593    0.3618 H   0  0  0  0  0  0  0  0  0  0  0  0
   -5.6162   -0.7269    1.7301 H   0  0  0  0  0  0  0  0  0  0  0  0
   -5.2975    0.9253    2.2833 H   0  0  0  0  0  0  0  0  0  0  0  0
   -6.1484    0.6543    0.7451 H   0  0  0  0  0  0  0  0  0  0  0  0
  1  9  1  0  0  0  0
  1 12  1  0  0  0  0
  2 14  1  0  0  0  0
  2 32  1  0  0  0  0
  3  7  1  0  0  0  0
  3  8  1  0  0  0  0
  3 12  2  0  0  0  0
  4 15  2  0  0  0  0
  4 17  1  0  0  0  0
  5 16  1  0  0  0  0
  5 17  2  0  0  0  0
  6 15  1  0  0  0  0
  6 30  1  0  0  0  0
  6 31  1  0  0  0  0
  7  9  2  0  0  0  0
  7 13  1  0  0  0  0
  8 11  1  0  0  0  0
  8 19  1  0  0  0  0
  8 20  1  0  0  0  0
  9 10  1  0  0  0  0
 10 14  1  0  0  0  0
 10 21  1  0  0  0  0
 10 22  1  0  0  0  0
 11 15  1  0  0  0  0
 11 16  2  0  0  0  0
 12 23  1  0  0  0  0
 13 24  1  0  0  0  0
 13 25  1  0  0  0  0
 13 26  1  0  0  0  0
 14 27  1  0  0  0  0
 14 28  1  0  0  0  0
 16 29  1  0  0  0  0
 17 18  1  0  0  0  0
 18 33  1  0  0  0  0
 18 34  1  0  0  0  0
 18 35  1  0  0  0  0
M  CHG  1   3   1
M  END
>  <PUBCHEM_COMPOUND_CID>
1130

>  <PUBCHEM_CONFORMER_RMSD>
0.6

>  <PUBCHEM_CONFORMER_DIVERSEORDER>
31
16
75
79
60
7
30
32
57
34
18
78
67
3
29
50
45
70
11
81
52
14
6
74
80
53
12
51
2
47
73
56
26
54
68
13
77
15
28
83
38
61
46
66
23
5
76
44
65
19
27
33
25
58
62
10
24
49
82
17
20
40
22
35
55
1
59
69
41
21
71
36
8
42
63
43
48
4
72
64
9
37
39

>  <PUBCHEM_MMFF94_PARTIAL_CHARGES>
23
1 -0.08
10 0.18
11 -0.14
12 0.22
13 0.18
14 0.28
15 0.41
16 0.16
17 0.48
18 0.14
2 -0.68
23 0.15
29 0.15
3 -0.18
30 0.4
31 0.4
32 0.4
4 -0.62
5 -0.62
6 -0.9
7 0.15
8 0.66
9 -0.14

>  <PUBCHEM_EFFECTIVE_ROTOR_COUNT>
4

>  <PUBCHEM_PHARMACOPHORE_FEATURES>
7
1 2 acceptor
1 2 donor
1 6 donor
3 4 5 17 cation
3 4 6 15 cation
5 1 3 7 9 12 rings
6 4 5 11 15 16 17 rings

>  <PUBCHEM_HEAVY_ATOM_COUNT>
18

>  <PUBCHEM_ATOM_DEF_STEREO_COUNT>
0

>  <PUBCHEM_ATOM_UDEF_STEREO_COUNT>
0

>  <PUBCHEM_BOND_DEF_STEREO_COUNT>
0

>  <PUBCHEM_BOND_UDEF_STEREO_COUNT>
0

>  <PUBCHEM_ISOTOPIC_ATOM_COUNT>
0

>  <PUBCHEM_COMPONENT_COUNT>
1

>  <PUBCHEM_CACTVS_TAUTO_COUNT>
3

>  <PUBCHEM_CONFORMER_ID>
0000046A0000001F

>  <PUBCHEM_MMFF94_ENERGY>
47.9658

>  <PUBCHEM_FEATURE_SELFOVERLAP>
35.656

>  <PUBCHEM_SHAPE_FINGERPRINT>
12236239 1 18410011052377905517
12251169 10 18334576836941110197
124424 183 15339114654555927262
12507560 40 18265054635323484117
13140716 1 17750242580713485498
13214271 11 17458338603111573133
13965767 371 17692837903293508249
14251718 22 13479134601316174704
14341114 176 18336834099742297034
14386348 63 15502376720800705993
15048467 5 17203605995946968048
15209289 33 18113618993060823954
15209294 21 18342170055552357034
15375462 189 18187358818282452888
15527383 91 17676490544509703733
17834072 33 11530487731315879210
1813 80 17604158025836857902
19050596 39 18335987549109308409
19862831 5 10159691404626459929
200 152 15791729706998694433
20028762 73 18115313409162703235
20645477 56 17917992763260375529
20871999 31 11963383051151502687
22224240 67 18113336426972529354
231179 274 14908181949721476636
23402539 116 15482664676401397096
23493267 7 17132109139179207554
23557571 272 16271642390527559039
23559900 14 17416989312339089916
23622692 88 18410576180138404013
25 1 13902189274692577613
26918003 58 17458348546251104569
3009799 131 12031783652820979162
465052 167 16732989725848176978
474229 33 16515685542032674730
59755656 520 17132110226322502447
633830 44 16916768718001685298

>  <PUBCHEM_SHAPE_MULTIPOLES>
348.49
10.94
1.52
1.26
5.72
0.1
-0.14
-0.47
4.45
0.12
-0.21
-0.95
-0.14
-0.86

>  <PUBCHEM_SHAPE_SELFOVERLAP>
719.529

>  <PUBCHEM_SHAPE_VOLUME>
203.3

>  <PUBCHEM_COORDINATE_TYPE>
2
5
10

$$$$
128853
 OpenBabel10062414423D

 33 35  0  0  0  0  0  0  0  0999 V2000
    0.6485   -0.8049    0.0360 O   0  3  0  0  0  0  0  0  0  0  0  0
   -0.5453    2.6963    0.0907 O   0  0  0  0  0  0  0  0  0  0  0  0
    4.5461    2.0937   -0.0568 O   0  0  0  0  0  0  0  0  0  0  0  0
    5.0779   -2.6332    0.0110 O   0  0  0  0  0  0  0  0  0  0  0  0
   -4.3351   -0.3972    2.3787 O   0  0  0  0  0  0  0  0  0  0  0  0
   -4.3077   -0.3836   -2.4101 O   0  0  0  0  0  0  0  0  0  0  0  0
   -5.6969   -0.5993   -0.0242 O   0  0  0  0  0  0  0  0  0  0  0  0
    2.5847    0.6925   -0.0085 C   0  0  0  0  0  0  0  0  0  0  0  0
   -0.1338    0.2378    0.0103 C   0  0  0  0  0  0  0  0  0  0  0  0
    2.0404   -0.5956    0.0211 C   0  0  0  0  0  0  0  0  0  0  0  0
   -1.5990    0.0172    0.0010 C   0  0  0  0  0  0  0  0  0  0  0  0
    0.3505    1.6546    0.0176 C   0  0  0  0  0  0  0  0  0  0  0  0
    1.6775    1.8345    0.0021 C   0  0  0  0  0  0  0  0  0  0  0  0
    3.9728    0.8566   -0.0308 C   0  0  0  0  0  0  0  0  0  0  0  0
    2.8772   -1.7121    0.0277 C   0  0  0  0  0  0  0  0  0  0  0  0
   -2.2729   -0.0815   -1.2111 C   0  0  0  0  0  0  0  0  0  0  0  0
   -2.2866   -0.0887    1.2047 C   0  0  0  0  0  0  0  0  0  0  0  0
    4.2608   -1.5447    0.0048 C   0  0  0  0  0  0  0  0  0  0  0  0
    4.8079   -0.2620   -0.0251 C   0  0  0  0  0  0  0  0  0  0  0  0
   -3.6660   -0.2960    1.1963 C   0  0  0  0  0  0  0  0  0  0  0  0
   -3.6522   -0.2886   -1.2196 C   0  0  0  0  0  0  0  0  0  0  0  0
   -4.3488   -0.3958   -0.0158 C   0  0  0  0  0  0  0  0  0  0  0  0
    2.0650    2.8453    0.0394 H   0  0  0  0  0  0  0  0  0  0  0  0
    2.4378   -2.7056    0.0492 H   0  0  0  0  0  0  0  0  0  0  0  0
   -1.7253    0.0026   -2.1467 H   0  0  0  0  0  0  0  0  0  0  0  0
   -1.7564   -0.0112    2.1508 H   0  0  0  0  0  0  0  0  0  0  0  0
    5.8875   -0.1341   -0.0426 H   0  0  0  0  0  0  0  0  0  0  0  0
   -1.4514    2.3530    0.1153 H   0  0  0  0  0  0  0  0  0  0  0  0
    3.9400    2.7398   -0.4509 H   0  0  0  0  0  0  0  0  0  0  0  0
    4.5313   -3.4374    0.0327 H   0  0  0  0  0  0  0  0  0  0  0  0
   -5.2782   -0.5382    2.1852 H   0  0  0  0  0  0  0  0  0  0  0  0
   -3.6658   -0.2854   -3.1342 H   0  0  0  0  0  0  0  0  0  0  0  0
   -5.9952   -0.6422   -0.9493 H   0  0  0  0  0  0  0  0  0  0  0  0
  1  9  2  0  0  0  0
  1 10  1  0  0  0  0
  2 12  1  0  0  0  0
  2 28  1  0  0  0  0
  3 14  1  0  0  0  0
  3 29  1  0  0  0  0
  4 18  1  0  0  0  0
  4 30  1  0  0  0  0
  5 20  1  0  0  0  0
  5 31  1  0  0  0  0
  6 21  1  0  0  0  0
  6 32  1  0  0  0  0
  7 22  1  0  0  0  0
  7 33  1  0  0  0  0
  8 10  1  0  0  0  0
  8 13  1  0  0  0  0
  8 14  2  0  0  0  0
  9 11  1  0  0  0  0
  9 12  1  0  0  0  0
 10 15  2  0  0  0  0
 11 16  2  0  0  0  0
 11 17  1  0  0  0  0
 12 13  2  0  0  0  0
 13 23  1  0  0  0  0
 14 19  1  0  0  0  0
 15 18  1  0  0  0  0
 15 24  1  0  0  0  0
 16 21  1  0  0  0  0
 16 25  1  0  0  0  0
 17 20  2  0  0  0  0
 17 26  1  0  0  0  0
 18 19  2  0  0  0  0
 19 27  1  0  0  0  0
 20 22  1  0  0  0  0
 21 22  2  0  0  0  0
M  CHG  1   1   1
M  END
>  <PUBCHEM_COMPOUND_CID>
128853

>  <PUBCHEM_CONFORMER_RMSD>
0.6

>  <PUBCHEM_CONFORMER_DIVERSEORDER>
1

>  <PUBCHEM_MMFF94_PARTIAL_CHARGES>
33
1 -0.87
10 0.92
11 0.09
12 0.09
13 -0.18
14 0.08
15 -0.15
16 -0.15
17 -0.15
18 0.08
19 -0.15
2 -0.53
20 0.08
21 0.08
22 0.08
23 0.15
24 0.15
25 0.15
26 0.15
27 0.15
28 0.45
29 0.45
3 -0.53
30 0.45
31 0.45
32 0.45
33 0.45
4 -0.53
5 -0.53
6 -0.53
7 -0.53
8 0.03
9 0.85

>  <PUBCHEM_EFFECTIVE_ROTOR_COUNT>
1

>  <PUBCHEM_PHARMACOPHORE_FEATURES>
9
1 2 donor
1 3 donor
1 4 donor
1 5 donor
1 6 donor
1 7 donor
6 1 8 9 10 12 13 rings
6 11 16 17 20 21 22 rings
6 8 10 14 15 18 19 rings

>  <PUBCHEM_HEAVY_ATOM_COUNT>
22

>  <PUBCHEM_ATOM_DEF_STEREO_COUNT>
0

>  <PUBCHEM_ATOM_UDEF_STEREO_COUNT>
0

>  <PUBCHEM_BOND_DEF_STEREO_COUNT>
0

>  <PUBCHEM_BOND_UDEF_STEREO_COUNT>
0

>  <PUBCHEM_ISOTOPIC_ATOM_COUNT>
0

>  <PUBCHEM_COMPONENT_COUNT>
1

>  <PUBCHEM_CACTVS_TAUTO_COUNT>
618

>  <PUBCHEM_CONFORMER_ID>
0001F75500000001

>  <PUBCHEM_MMFF94_ENERGY>
68.5174

>  <PUBCHEM_FEATURE_SELFOVERLAP>
45.714

>  <PUBCHEM_SHAPE_FINGERPRINT>
10912923 1 17632578270583619322
11471102 20 18409165541327618772
11796584 16 16588576518629384290
12107183 9 17554344522190423851
12236239 1 17846782931679648777
12553582 1 18413394228635423014
12616971 3 18131071515158313246
12633257 1 16630531717233204777
12670546 56 17489585679516398313
13134695 92 18412542145367756357
13140716 1 18051693549519291040
13533116 47 18272368689276054667
13544653 18 18408045091396697228
13760787 5 18413951693672910356
14386348 63 17894351098720941843
14573314 32 17530961367295163143
14739800 52 16127794409758060616
15196674 1 18410575050425082096
15375462 189 18131072640756308184
15788980 27 18342736299677135527
15961568 22 15719963556825656428
17349148 13 17704070728819961831
17357779 13 18260539013661042661
17844677 252 18408327661426642117
1813 80 18271822189274314996
18186145 218 17386006143708841344
18785283 64 17607539216823192636
193927 3 18263653879111459306
200 152 18342171155006001249
20645477 70 18335134289431630406
21033648 29 18040984172746103157
21065201 7 16370722625721965306
21267235 1 18412269407008289654
221357 26 18261381244479947965
2297311 6 16370733621508253195
23175994 123 18114185241781418981
23402539 116 18342174423449850227
23557571 272 16950558891555010684
23559900 14 16950838112117067082
26918003 58 18113337513778421130
2871803 45 18187364294782467138
312423 11 18338811005065319756
314194 84 18343298184479031110
345986 75 18059289847500360906
34797466 226 16805333209693842942
46194498 28 17459187542020847477
465052 167 18343025501221371286
474 4 17771613835499545416
5104073 3 18267582408661792280
5281201 14 17749108889598896188
5283173 99 17968647208112712501
573450 72 16989126452575043919
602551 16 15338829915082085052
7064713 232 16917065529790093734
77492 1 17703794760128435337

>  <PUBCHEM_SHAPE_MULTIPOLES>
411.66
11.65
1.97
1.29
1.56
0.49
0.03
-4.26
0.12
-3.1
-0.03
2.66
-0.22
-0.03

>  <PUBCHEM_SHAPE_SELFOVERLAP>
920.248

>  <PUBCHEM_SHAPE_VOLUME>
216.1

>  <PUBCHEM_COORDINATE_TYPE>
2
5
10

$$$$
135
 OpenBabel10062414423D

 16 16  0  0  0  0  0  0  0  0999 V2000
    3.4587   -0.0255   -0.0011 O   0  0  0  0  0  0  0  0  0  0  0  0
   -2.6845   -1.1936   -0.0010 O   0  0  0  0  0  0  0  0  0  0  0  0
   -2.8471    1.0736   -0.0002 O   0  0  0  0  0  0  0  0  0  0  0  0
   -0.6916    0.0354    0.0004 C   0  0  0  0  0  0  0  0  0  0  0  0
    0.0234    1.2330    0.0002 C   0  0  0  0  0  0  0  0  0  0  0  0
   -0.0120   -1.1828    0.0006 C   0  0  0  0  0  0  0  0  0  0  0  0
    2.0979   -0.0057    0.0003 C   0  0  0  0  0  0  0  0  0  0  0  0
    1.4181    1.2124    0.0000 C   0  0  0  0  0  0  0  0  0  0  0  0
    1.3828   -1.2034    0.0005 C   0  0  0  0  0  0  0  0  0  0  0  0
   -2.1458    0.0566    0.0002 C   0  0  0  0  0  0  0  0  0  0  0  0
   -0.4873    2.1924    0.0000 H   0  0  0  0  0  0  0  0  0  0  0  0
   -0.5289   -2.1383    0.0007 H   0  0  0  0  0  0  0  0  0  0  0  0
    1.9637    2.1523   -0.0004 H   0  0  0  0  0  0  0  0  0  0  0  0
    1.9072   -2.1552    0.0005 H   0  0  0  0  0  0  0  0  0  0  0  0
    3.7872    0.8900   -0.0013 H   0  0  0  0  0  0  0  0  0  0  0  0
   -3.6652   -1.1683   -0.0017 H   0  0  0  0  0  0  0  0  0  0  0  0
  1  7  1  0  0  0  0
  1 15  1  0  0  0  0
  2 10  1  0  0  0  0
  2 16  1  0  0  0  0
  3 10  2  0  0  0  0
  4  5  2  0  0  0  0
  4  6  1  0  0  0  0
  4 10  1  0  0  0  0
  5  8  1  0  0  0  0
  5 11  1  0  0  0  0
  6  9  2  0  0  0  0
  6 12  1  0  0  0  0
  7  8  2  0  0  0  0
  7  9  1  0  0  0  0
  8 13  1  0  0  0  0
  9 14  1  0  0  0  0
M  END
>  <PUBCHEM_COMPOUND_CID>
135

>  <PUBCHEM_CONFORMER_RMSD>
0.4

>  <PUBCHEM_CONFORMER_DIVERSEORDER>
1
2

>  <PUBCHEM_MMFF94_PARTIAL_CHARGES>
16
1 -0.53
10 0.63
11 0.15
12 0.15
13 0.15
14 0.15
15 0.45
16 0.5
2 -0.65
3 -0.57
4 0.09
5 -0.15
6 -0.15
7 0.08
8 -0.15
9 -0.15

>  <PUBCHEM_EFFECTIVE_ROTOR_COUNT>
1

>  <PUBCHEM_PHARMACOPHORE_FEATURES>
5
1 1 donor
1 2 acceptor
1 3 acceptor
3 2 3 10 anion
6 4 5 6 7 8 9 rings

>  <PUBCHEM_HEAVY_ATOM_COUNT>
10

>  <PUBCHEM_ATOM_DEF_STEREO_COUNT>
0

>  <PUBCHEM_ATOM_UDEF_STEREO_COUNT>
0

>  <PUBCHEM_BOND_DEF_STEREO_COUNT>
0

>  <PUBCHEM_BOND_UDEF_STEREO_COUNT>
0

>  <PUBCHEM_ISOTOPIC_ATOM_COUNT>
0

>  <PUBCHEM_COMPONENT_COUNT>
1

>  <PUBCHEM_CACTVS_TAUTO_COUNT>
3

>  <PUBCHEM_CONFORMER_ID>
0000008700000001

>  <PUBCHEM_MMFF94_ENERGY>
26.4346

>  <PUBCHEM_FEATURE_SELFOVERLAP>
25.429

>  <PUBCHEM_SHAPE_FINGERPRINT>
10857977 72 18411127065296439266
12032990 46 18411990160797858662
12897270 3 18411417297716728037
14325111 11 18410574011106027136
16945 1 18410573942259904388
193761 8 17545884192768768068
20201158 50 18409165489429315055
21040471 1 18338517572424760384
23235685 24 18410288103807411080
23402655 69 18268695127293280949
23552423 10 18333452062073073487
2748010 2 18266740375231910300
29004967 10 18408608045528839954
5084963 1 18270964655966546417
528886 8 18411412886811688857

>  <PUBCHEM_SHAPE_MULTIPOLES>
188.19
4.18
1.43
0.59
0.22
0.01
0
-0.01
0
0.14
0
-0.02
0
0

>  <PUBCHEM_SHAPE_SELFOVERLAP>
397.264

>  <PUBCHEM_SHAPE_VOLUME>
106.2

>  <PUBCHEM_COORDINATE_TYPE>
2
5
10

$$$$
173183
 OpenBabel10062414423D

 77 80  0  0  1  0  0  0  0  0999 V2000
    7.9588    0.2879    1.3194 O   0  0  0  0  0  0  0  0  0  0  0  0
   -0.5026    0.2288   -0.8795 C   0  0  1  0  0  0  0  0  0  0  0  0
    0.2462   -1.0008   -0.3280 C   0  0  2  0  0  0  0  0  0  0  0  0
    1.7615   -0.9340   -0.5429 C   0  0  1  0  0  0  0  0  0  0  0  0
    2.3260    0.3501    0.1317 C   0  0  1  0  0  0  0  0  0  0  0  0
   -1.9546   -0.1989   -0.5548 C   0  0  2  0  0  0  0  0  0  0  0  0
   -0.0055    1.4571   -0.1046 C   0  0  0  0  0  0  0  0  0  0  0  0
    3.8851    0.4856   -0.0956 C   0  0  2  0  0  0  0  0  0  0  0  0
   -0.5265   -2.1840   -0.9031 C   0  0  0  0  0  0  0  0  0  0  0  0
    1.5183    1.6259   -0.2345 C   0  0  0  0  0  0  0  0  0  0  0  0
   -1.9877   -1.6986   -0.9330 C   0  0  0  0  0  0  0  0  0  0  0  0
    2.4484   -2.1804    0.0350 C   0  0  0  0  0  0  0  0  0  0  0  0
   -3.0651    0.6035   -1.2173 C   0  0  1  0  0  0  0  0  0  0  0  0
   -0.3131    0.4524   -2.4005 C   0  0  0  0  0  0  0  0  0  0  0  0
    4.5886   -0.8600    0.1303 C   0  0  0  0  0  0  0  0  0  0  0  0
    4.4378    1.5271    0.9229 C   0  0  0  0  0  0  0  0  0  0  0  0
    3.9267   -2.0281    0.1984 C   0  0  0  0  0  0  0  0  0  0  0  0
    4.2052    0.9566   -1.5347 C   0  0  0  0  0  0  0  0  0  0  0  0
    6.0916   -0.8351    0.2868 C   0  0  0  0  0  0  0  0  0  0  0  0
    5.9625    1.5713    1.0135 C   0  0  0  0  0  0  0  0  0  0  0  0
   -4.4432    0.0259   -0.8282 C   0  0  0  0  0  0  0  0  0  0  0  0
    6.5379    0.1936    1.3220 C   0  0  2  0  0  0  0  0  0  0  0  0
   -2.9379    2.0845   -0.8450 C   0  0  0  0  0  0  0  0  0  0  0  0
   -4.6866   -0.0152    0.6854 C   0  0  0  0  0  0  0  0  0  0  0  0
   -6.0726   -0.5794    1.0804 C   0  0  2  0  0  0  0  0  0  0  0  0
   -7.2651    0.1093    0.3563 C   0  0  0  0  0  0  0  0  0  0  0  0
   -6.1957   -0.5517    2.6108 C   0  0  0  0  0  0  0  0  0  0  0  0
   -8.6099   -0.5182    0.7428 C   0  0  0  0  0  0  0  0  0  0  0  0
   -7.3284    1.6245    0.5661 C   0  0  0  0  0  0  0  0  0  0  0  0
    0.0881   -1.0379    0.7634 H   0  0  0  0  0  0  0  0  0  0  0  0
    1.9746   -0.9074   -1.6175 H   0  0  0  0  0  0  0  0  0  0  0  0
    2.1722    0.2112    1.2144 H   0  0  0  0  0  0  0  0  0  0  0  0
   -2.0558   -0.1291    0.5365 H   0  0  0  0  0  0  0  0  0  0  0  0
   -0.2591    1.3660    0.9592 H   0  0  0  0  0  0  0  0  0  0  0  0
   -0.4494    2.3895   -0.4544 H   0  0  0  0  0  0  0  0  0  0  0  0
   -0.4183   -3.0824   -0.2869 H   0  0  0  0  0  0  0  0  0  0  0  0
   -0.1856   -2.4327   -1.9144 H   0  0  0  0  0  0  0  0  0  0  0  0
    1.7422    1.9415   -1.2576 H   0  0  0  0  0  0  0  0  0  0  0  0
    1.8234    2.4542    0.4151 H   0  0  0  0  0  0  0  0  0  0  0  0
   -2.4051   -1.8666   -1.9324 H   0  0  0  0  0  0  0  0  0  0  0  0
   -2.5972   -2.2662   -0.2214 H   0  0  0  0  0  0  0  0  0  0  0  0
    2.2537   -3.0344   -0.6250 H   0  0  0  0  0  0  0  0  0  0  0  0
    2.0264   -2.4352    1.0151 H   0  0  0  0  0  0  0  0  0  0  0  0
   -2.9980    0.5261   -2.3097 H   0  0  0  0  0  0  0  0  0  0  0  0
   -0.7950    1.3763   -2.7344 H   0  0  0  0  0  0  0  0  0  0  0  0
    0.7393    0.5366   -2.6845 H   0  0  0  0  0  0  0  0  0  0  0  0
   -0.7320   -0.3641   -2.9973 H   0  0  0  0  0  0  0  0  0  0  0  0
    4.0482    1.3028    1.9253 H   0  0  0  0  0  0  0  0  0  0  0  0
    4.0811    2.5332    0.6718 H   0  0  0  0  0  0  0  0  0  0  0  0
    4.4783   -2.9472    0.3817 H   0  0  0  0  0  0  0  0  0  0  0  0
    3.7404    0.3106   -2.2867 H   0  0  0  0  0  0  0  0  0  0  0  0
    3.8605    1.9805   -1.7115 H   0  0  0  0  0  0  0  0  0  0  0  0
    5.2804    0.9591   -1.7427 H   0  0  0  0  0  0  0  0  0  0  0  0
    6.4836   -1.8193    0.5747 H   0  0  0  0  0  0  0  0  0  0  0  0
    6.5603   -0.6186   -0.6816 H   0  0  0  0  0  0  0  0  0  0  0  0
    6.3939    1.9631    0.0840 H   0  0  0  0  0  0  0  0  0  0  0  0
    6.2670    2.2789    1.7948 H   0  0  0  0  0  0  0  0  0  0  0  0
   -5.2024    0.6436   -1.3197 H   0  0  0  0  0  0  0  0  0  0  0  0
   -4.5629   -0.9824   -1.2418 H   0  0  0  0  0  0  0  0  0  0  0  0
    6.2252   -0.1187    2.3259 H   0  0  0  0  0  0  0  0  0  0  0  0
   -3.8862    2.6022   -1.0339 H   0  0  0  0  0  0  0  0  0  0  0  0
   -2.2046    2.5976   -1.4703 H   0  0  0  0  0  0  0  0  0  0  0  0
   -2.6987    2.2347    0.2122 H   0  0  0  0  0  0  0  0  0  0  0  0
   -3.9413   -0.6530    1.1714 H   0  0  0  0  0  0  0  0  0  0  0  0
   -4.5654    0.9871    1.1119 H   0  0  0  0  0  0  0  0  0  0  0  0
   -6.0840   -1.6369    0.7800 H   0  0  0  0  0  0  0  0  0  0  0  0
    8.3111   -0.5956    1.5212 H   0  0  0  0  0  0  0  0  0  0  0  0
   -7.1550   -0.0702   -0.7201 H   0  0  0  0  0  0  0  0  0  0  0  0
   -7.1010   -1.0622    2.9516 H   0  0  0  0  0  0  0  0  0  0  0  0
   -6.2103    0.4719    2.9975 H   0  0  0  0  0  0  0  0  0  0  0  0
   -5.3474   -1.0681    3.0741 H   0  0  0  0  0  0  0  0  0  0  0  0
   -8.5790   -1.6074    0.6354 H   0  0  0  0  0  0  0  0  0  0  0  0
   -9.4070   -0.1439    0.0908 H   0  0  0  0  0  0  0  0  0  0  0  0
   -8.8924   -0.2793    1.7729 H   0  0  0  0  0  0  0  0  0  0  0  0
   -8.1643    2.0536    0.0022 H   0  0  0  0  0  0  0  0  0  0  0  0
   -7.4769    1.8807    1.6197 H   0  0  0  0  0  0  0  0  0  0  0  0
   -6.4182    2.1217    0.2195 H   0  0  0  0  0  0  0  0  0  0  0  0
  1 22  1  0  0  0  0
  1 67  1  0  0  0  0
  2  3  1  0  0  0  0
  2  6  1  0  0  0  0
  2  7  1  0  0  0  0
  2 14  1  6  0  0  0
  3  4  1  0  0  0  0
  3  9  1  0  0  0  0
  3 30  1  1  0  0  0
  4  5  1  0  0  0  0
  4 12  1  0  0  0  0
  4 31  1  6  0  0  0
  5  8  1  0  0  0  0
  5 10  1  0  0  0  0
  5 32  1  1  0  0  0
  6 11  1  0  0  0  0
  6 13  1  0  0  0  0
  6 33  1  1  0  0  0
  7 10  1  0  0  0  0
  7 34  1  0  0  0  0
  7 35  1  0  0  0  0
  8 15  1  0  0  0  0
  8 16  1  0  0  0  0
  8 18  1  6  0  0  0
  9 11  1  0  0  0  0
  9 36  1  0  0  0  0
  9 37  1  0  0  0  0
 10 38  1  0  0  0  0
 10 39  1  0  0  0  0
 11 40  1  0  0  0  0
 11 41  1  0  0  0  0
 12 17  1  0  0  0  0
 12 42  1  0  0  0  0
 12 43  1  0  0  0  0
 13 21  1  0  0  0  0
 13 23  1  0  0  0  0
 13 44  1  6  0  0  0
 14 45  1  0  0  0  0
 14 46  1  0  0  0  0
 14 47  1  0  0  0  0
 15 17  2  0  0  0  0
 15 19  1  0  0  0  0
 16 20  1  0  0  0  0
 16 48  1  0  0  0  0
 16 49  1  0  0  0  0
 17 50  1  0  0  0  0
 18 51  1  0  0  0  0
 18 52  1  0  0  0  0
 18 53  1  0  0  0  0
 19 22  1  0  0  0  0
 19 54  1  0  0  0  0
 19 55  1  0  0  0  0
 20 22  1  0  0  0  0
 20 56  1  0  0  0  0
 20 57  1  0  0  0  0
 21 24  1  0  0  0  0
 21 58  1  0  0  0  0
 21 59  1  0  0  0  0
 22 60  1  1  0  0  0
 23 61  1  0  0  0  0
 23 62  1  0  0  0  0
 23 63  1  0  0  0  0
 24 25  1  0  0  0  0
 24 64  1  0  0  0  0
 24 65  1  0  0  0  0
 25 26  1  0  0  0  0
 25 27  1  0  0  0  0
 25 66  1  6  0  0  0
 26 28  1  0  0  0  0
 26 29  1  0  0  0  0
 26 68  1  0  0  0  0
 27 69  1  0  0  0  0
 27 70  1  0  0  0  0
 27 71  1  0  0  0  0
 28 72  1  0  0  0  0
 28 73  1  0  0  0  0
 28 74  1  0  0  0  0
 29 75  1  0  0  0  0
 29 76  1  0  0  0  0
 29 77  1  0  0  0  0
M  END
>  <PUBCHEM_COMPOUND_CID>
173183

>  <PUBCHEM_CONFORMER_RMSD>
0.8

>  <PUBCHEM_CONFORMER_DIVERSEORDER>
2
3
1
7
5
4
6

>  <PUBCHEM_MMFF94_PARTIAL_CHARGES>
9
1 -0.68
12 0.14
15 -0.28
17 -0.29
19 0.14
22 0.28
50 0.15
67 0.4
8 0.14

>  <PUBCHEM_EFFECTIVE_ROTOR_COUNT>
7

>  <PUBCHEM_PHARMACOPHORE_FEATURES>
10
1 1 acceptor
1 1 donor
1 23 hydrophobe
1 27 hydrophobe
3 26 28 29 hydrophobe
5 13 21 24 25 26 hydrophobe
5 2 3 6 9 11 rings
6 2 3 4 5 7 10 rings
6 4 5 8 12 15 17 rings
6 8 15 16 19 20 22 rings

>  <PUBCHEM_HEAVY_ATOM_COUNT>
29

>  <PUBCHEM_ATOM_DEF_STEREO_COUNT>
9

>  <PUBCHEM_ATOM_UDEF_STEREO_COUNT>
0

>  <PUBCHEM_BOND_DEF_STEREO_COUNT>
0

>  <PUBCHEM_BOND_UDEF_STEREO_COUNT>
0

>  <PUBCHEM_ISOTOPIC_ATOM_COUNT>
0

>  <PUBCHEM_COMPONENT_COUNT>
1

>  <PUBCHEM_CACTVS_TAUTO_COUNT>
1

>  <PUBCHEM_CONFORMER_ID>
0002A47F00000002

>  <PUBCHEM_MMFF94_ENERGY>
89.2731

>  <PUBCHEM_FEATURE_SELFOVERLAP>
50.856

>  <PUBCHEM_SHAPE_FINGERPRINT>
10 15 18333448772286620736
10299344 5 13045940201422234507
106641 1 18343020013091689987
10693767 8 7853588897990308112
11456790 92 18272080574801923664
11578080 2 17416387982436429690
11646440 116 18413388739699302704
12035758 1 18334575762983151362
12166972 35 13623531259826192582
12236239 1 17418087728354371062
13073987 5 18337387124068533960
13140716 1 18195240251101618780
13540713 4 18120369857195718279
13668630 136 11530484423958848993
13673619 4 15357693102393204981
13782708 43 16443062794190255074
13811026 1 18187364333848525369
14251764 18 17846212284923371589
14341114 176 18409731746686805125
14849402 71 17917426588145738025
15131766 46 16228602097720246759
15183329 4 9799696991578618815
15188451 53 16153425051982300967
15475509 35 17168695316280812794
20028762 73 12107780809474081808
20105231 36 18336267860867982146
21150785 3 12035448337644565346
21267235 1 18337112272532878190
21403212 168 18272367568827536879
21424621 283 15698007318757025639
21521239 73 7925912577677526273
21623969 137 18334579031469224267
21637258 2 15285637711620803655
21781051 124 17895207597237322274
21792934 111 18334009467767379133
22122407 14 17203334467460465923
22149856 69 18337405846353353529
22224240 67 18342458149675486079
22956985 138 14781487308181137114
23559900 14 18272076220422496236
23576562 1 11455304251220917777
249057 3 9583512127210206297
2838139 119 14908178634455065761
29717793 49 11458423522685437002
3009799 131 10087640394736635895
3178227 256 18409166628049387920
4093350 32 16988844965272802494
4325135 7 12035445034392773659
4340502 62 17967531268335008938
465052 167 17167864183983680516
5104073 3 18190454965616749112
5283156 175 13479131285759716627
5385378 56 18130790027634765822
59682541 35 18334012830283459097

>  <PUBCHEM_SHAPE_MULTIPOLES>
590.94
21.17
1.98
1.61
17.91
0.26
0.11
-2.27
13.24
-0.91
-0.19
0.89
-0.11
0.83

>  <PUBCHEM_SHAPE_SELFOVERLAP>
1222.698

>  <PUBCHEM_SHAPE_VOLUME>
338.2

>  <PUBCHEM_COORDINATE_TYPE>
2
5
10

$$$$
1794427
 OpenBabel10062414423D

 43 44  0  0  1  0  0  0  0  0999 V2000
   -1.0078    1.4574    0.1394 O   0  0  0  0  0  0  0  0  0  0  0  0
   -4.3759   -1.0402    1.2976 O   0  0  0  0  0  0  0  0  0  0  0  0
   -3.2792    3.1535   -0.4273 O   0  0  0  0  0  0  0  0  0  0  0  0
   -5.2927    1.5258    0.5209 O   0  0  0  0  0  0  0  0  0  0  0  0
   -3.2656   -2.5621   -1.7381 O   0  0  0  0  0  0  0  0  0  0  0  0
   -4.1308   -3.4529    0.1734 O   0  0  0  0  0  0  0  0  0  0  0  0
   -0.3354    0.4509    2.1073 O   0  0  0  0  0  0  0  0  0  0  0  0
    6.6628   -1.7287    0.8328 O   0  0  0  0  0  0  0  0  0  0  0  0
    7.3949   -0.0879   -1.2882 O   0  0  0  0  0  0  0  0  0  0  0  0
   -3.8066   -1.0453   -0.0043 C   0  0  2  0  0  0  0  0  0  0  0  0
   -2.3597    1.0217    0.2742 C   0  0  2  0  0  0  0  0  0  0  0  0
   -2.3870   -0.4889    0.0218 C   0  0  0  0  0  0  0  0  0  0  0  0
   -4.7104   -0.2847   -0.9790 C   0  0  0  0  0  0  0  0  0  0  0  0
   -3.2445    1.7612   -0.7353 C   0  0  1  0  0  0  0  0  0  0  0  0
   -4.6808    1.2292   -0.7352 C   0  0  2  0  0  0  0  0  0  0  0  0
   -3.7664   -2.4871   -0.4808 C   0  0  0  0  0  0  0  0  0  0  0  0
   -0.1108    0.8730    0.9841 C   0  0  0  0  0  0  0  0  0  0  0  0
    1.2015    0.8376    0.2996 C   0  0  0  0  0  0  0  0  0  0  0  0
    2.2573    0.2951    0.9228 C   0  0  0  0  0  0  0  0  0  0  0  0
    3.6084    0.1919    0.3440 C   0  0  0  0  0  0  0  0  0  0  0  0
    4.5023   -0.7279    0.8677 C   0  0  0  0  0  0  0  0  0  0  0  0
    3.9585    1.0167   -0.7126 C   0  0  0  0  0  0  0  0  0  0  0  0
    5.7814   -0.8255    0.3199 C   0  0  0  0  0  0  0  0  0  0  0  0
    5.2376    0.9192   -1.2605 C   0  0  0  0  0  0  0  0  0  0  0  0
    6.1489   -0.0019   -0.7442 C   0  0  0  0  0  0  0  0  0  0  0  0
   -2.6940    1.2592    1.2926 H   0  0  0  0  0  0  0  0  0  0  0  0
   -1.8614   -0.6920   -0.9215 H   0  0  0  0  0  0  0  0  0  0  0  0
   -1.8157   -1.0235    0.7898 H   0  0  0  0  0  0  0  0  0  0  0  0
   -5.7430   -0.6412   -0.8683 H   0  0  0  0  0  0  0  0  0  0  0  0
   -4.4156   -0.4587   -2.0211 H   0  0  0  0  0  0  0  0  0  0  0  0
   -2.8159    1.6690   -1.7410 H   0  0  0  0  0  0  0  0  0  0  0  0
   -5.2678    1.7504   -1.5000 H   0  0  0  0  0  0  0  0  0  0  0  0
   -3.7567   -1.4850    1.9012 H   0  0  0  0  0  0  0  0  0  0  0  0
   -2.3595    3.4687   -0.4053 H   0  0  0  0  0  0  0  0  0  0  0  0
   -6.2037    1.1873    0.4901 H   0  0  0  0  0  0  0  0  0  0  0  0
   -3.2302   -3.4866   -2.0640 H   0  0  0  0  0  0  0  0  0  0  0  0
    1.2417    1.2402   -0.7058 H   0  0  0  0  0  0  0  0  0  0  0  0
    2.1472   -0.1181    1.9230 H   0  0  0  0  0  0  0  0  0  0  0  0
    4.2241   -1.3748    1.6962 H   0  0  0  0  0  0  0  0  0  0  0  0
    3.2902    1.7621   -1.1317 H   0  0  0  0  0  0  0  0  0  0  0  0
    5.5199    1.5666   -2.0864 H   0  0  0  0  0  0  0  0  0  0  0  0
    7.5702   -1.4590    0.6175 H   0  0  0  0  0  0  0  0  0  0  0  0
    7.7786   -0.9577   -1.0915 H   0  0  0  0  0  0  0  0  0  0  0  0
  1 11  1  0  0  0  0
  1 17  1  0  0  0  0
  2 33  1  0  0  0  0
  3 14  1  0  0  0  0
  3 34  1  0  0  0  0
  4 15  1  0  0  0  0
  4 35  1  0  0  0  0
  5 16  1  0  0  0  0
  5 36  1  0  0  0  0
  6 16  2  0  0  0  0
  7 17  2  0  0  0  0
  8 23  1  0  0  0  0
  8 42  1  0  0  0  0
  9 25  1  0  0  0  0
  9 43  1  0  0  0  0
 10  2  1  1  0  0  0
 10 12  1  0  0  0  0
 10 13  1  0  0  0  0
 10 16  1  0  0  0  0
 11 12  1  0  0  0  0
 11 14  1  0  0  0  0
 11 26  1  1  0  0  0
 12 27  1  0  0  0  0
 12 28  1  0  0  0  0
 13 15  1  0  0  0  0
 13 29  1  0  0  0  0
 13 30  1  0  0  0  0
 14 15  1  0  0  0  0
 14 31  1  6  0  0  0
 15 32  1  6  0  0  0
 17 18  1  0  0  0  0
 18 19  2  0  0  0  0
 18 37  1  0  0  0  0
 19 20  1  0  0  0  0
 19 38  1  0  0  0  0
 20 21  2  0  0  0  0
 20 22  1  0  0  0  0
 21 23  1  0  0  0  0
 21 39  1  0  0  0  0
 22 24  2  0  0  0  0
 22 40  1  0  0  0  0
 23 25  2  0  0  0  0
 24 25  1  0  0  0  0
 24 41  1  0  0  0  0
M  END
>  <PUBCHEM_COMPOUND_CID>
1794427

>  <PUBCHEM_CONFORMER_RMSD>
0.8

>  <PUBCHEM_CONFORMER_DIVERSEORDER>
1
21
63
106
119
102
96
146
130
69
112
100
35
135
66
121
93
24
17
54
110
95
92
82
84
72
10
80
125
76
86
137
67
124
39
75
26
132
142
158
128
74
107
23
94
50
18
79
65
141
133
16
44
115
83
68
56
87
134
62
123
30
111
156
53
81
99
37
25
113
77
89
33
136
5
20
31
149
155
157
114
108
4
138
57
47
131
55
70
41
101
49
73
126
13
64
52
129
46
104
98
38
61
6
154
36
103
144
97
14
147
109
85
58
150
127
140
8
117
22
51
12
145
3
42
88
159
19
60
78
32
148
152
2
105
11
139
45
90
9
34
15
143
59
48
120
28
151
29
122
118
7
27
153
71
91
43
116
40

>  <PUBCHEM_MMFF94_PARTIAL_CHARGES>
34
1 -0.43
10 0.34
11 0.28
14 0.28
15 0.28
16 0.66
17 0.71
18 -0.14
19 -0.18
2 -0.68
20 0.03
21 -0.15
22 -0.15
23 0.08
24 -0.15
25 0.08
3 -0.68
33 0.4
34 0.4
35 0.4
36 0.5
37 0.15
38 0.15
39 0.15
4 -0.68
40 0.15
41 0.15
42 0.45
43 0.45
5 -0.65
6 -0.57
7 -0.57
8 -0.53
9 -0.53

>  <PUBCHEM_EFFECTIVE_ROTOR_COUNT>
6.2

>  <PUBCHEM_PHARMACOPHORE_FEATURES>
14
1 2 acceptor
1 2 donor
1 3 acceptor
1 3 donor
1 4 acceptor
1 4 donor
1 5 acceptor
1 6 acceptor
1 7 acceptor
1 8 donor
1 9 donor
3 5 6 16 anion
6 10 11 12 13 14 15 rings
6 20 21 22 23 24 25 rings

>  <PUBCHEM_HEAVY_ATOM_COUNT>
25

>  <PUBCHEM_ATOM_DEF_STEREO_COUNT>
4

>  <PUBCHEM_ATOM_UDEF_STEREO_COUNT>
0

>  <PUBCHEM_BOND_DEF_STEREO_COUNT>
1

>  <PUBCHEM_BOND_UDEF_STEREO_COUNT>
0

>  <PUBCHEM_ISOTOPIC_ATOM_COUNT>
0

>  <PUBCHEM_COMPONENT_COUNT>
1

>  <PUBCHEM_CACTVS_TAUTO_COUNT>
10

>  <PUBCHEM_CONFORMER_ID>
001B617B00000001

>  <PUBCHEM_MMFF94_ENERGY>
69.5883

>  <PUBCHEM_FEATURE_SELFOVERLAP>
71.134

>  <PUBCHEM_SHAPE_FINGERPRINT>
10595046 47 18260269676847310276
10803635 8 18341327825324139431
11135609 149 15793395364637434674
11135609 99 18058163935447945374
11315181 36 16630525141765043737
11524674 6 17203326711055562239
11796584 16 18272088275646882718
12236239 1 17894632530595310452
12616971 3 17894911815333697088
12969540 114 15140673700589332536
13167823 11 18260546714900926680
13690498 29 18335980969346031135
14251751 18 18343578573197988810
14251752 14 18335981991574504242
14251757 5 18336549437953132858
14528608 73 17894633665078456892
15183329 4 18187364311988625508
15250474 111 18187912959501238714
16990350 14 16687958921869602760
16992828 155 17243011250766920165
17780758 139 17346606300179847931
17844677 252 18343864433183925704
17870717 6 18343301466134465861
18927931 339 18411983580986946359
20281389 69 11818994089439417596
21033648 144 15936980755268983166
21307412 95 18197203958064547143
21623969 137 16415483761859342068
220451 1 18335707113699293376
22393880 68 18410569604749091504
23081809 10 17676206849915674136
23198884 109 17240484693103692497
23402539 116 17749108876856567884
23559900 14 18270387390819283672
25122255 55 17917721171452033822
2838139 119 16515402984893114388
3004659 81 18333729084023260218
314173 85 16343704322435308352
4015057 19 17313677052499837044
44062 13 18342172288956501799
484985 159 17917719028448294179
497634 4 16660364801122216675
531348 171 18262516992066090635
559249 180 18412257312137531015
59755656 520 16298673806429084089
6437827 68 18341047437191127598
7495541 125 18272930553357325456
7970288 3 17833548273484051355

>  <PUBCHEM_SHAPE_MULTIPOLES>
461.66
17.58
2.56
1.31
23.55
1.17
-0.07
4.25
4.19
-4.8
0.47
0.3
0.12
-1

>  <PUBCHEM_SHAPE_SELFOVERLAP>
981.935

>  <PUBCHEM_SHAPE_VOLUME>
254.1

>  <PUBCHEM_COORDINATE_TYPE>
2
5
10

$$$$
2153
 OpenBabel10062414423D

 21 22  0  0  0  0  0  0  0  0999 V2000
   -0.4586    2.7181    0.0003 O   0  0  0  0  0  0  0  0  0  0  0  0
   -2.4695   -1.5249   -0.0002 O   0  0  0  0  0  0  0  0  0  0  0  0
   -0.1456   -1.4090    0.0001 N   0  0  0  0  0  0  0  0  0  0  0  0
   -1.4928    0.6039   -0.0001 N   0  0  0  0  0  0  0  0  0  0  0  0
    2.1381    1.2470   -0.0001 N   0  0  0  0  0  0  0  0  0  0  0  0
    2.2775   -0.9780    0.0003 N   0  0  0  0  0  0  0  0  0  0  0  0
    0.9676   -0.5796   -0.0003 C   0  0  0  0  0  0  0  0  0  0  0  0
    0.8536    0.7838   -0.0007 C   0  0  0  0  0  0  0  0  0  0  0  0
   -0.3850    1.4926   -0.0005 C   0  0  0  0  0  0  0  0  0  0  0  0
   -1.4424   -0.8370   -0.0004 C   0  0  0  0  0  0  0  0  0  0  0  0
    0.0267   -2.8565    0.0002 C   0  0  0  0  0  0  0  0  0  0  0  0
   -2.8288    1.1905    0.0009 C   0  0  0  0  0  0  0  0  0  0  0  0
    2.9591    0.1491    0.0005 C   0  0  0  0  0  0  0  0  0  0  0  0
    2.4315    2.2150    0.0001 H   0  0  0  0  0  0  0  0  0  0  0  0
    0.5848   -3.1483   -0.8947 H   0  0  0  0  0  0  0  0  0  0  0  0
   -0.9352   -3.3753    0.0006 H   0  0  0  0  0  0  0  0  0  0  0  0
    0.5853   -3.1481    0.8950 H   0  0  0  0  0  0  0  0  0  0  0  0
   -2.8044    2.2826    0.0009 H   0  0  0  0  0  0  0  0  0  0  0  0
   -3.3655    0.8410    0.8886 H   0  0  0  0  0  0  0  0  0  0  0  0
   -3.3668    0.8410   -0.8862 H   0  0  0  0  0  0  0  0  0  0  0  0
    4.0359    0.2409    0.0010 H   0  0  0  0  0  0  0  0  0  0  0  0
  1  9  2  0  0  0  0
  2 10  2  0  0  0  0
  3  7  1  0  0  0  0
  3 10  1  0  0  0  0
  3 11  1  0  0  0  0
  4  9  1  0  0  0  0
  4 10  1  0  0  0  0
  4 12  1  0  0  0  0
  5  8  1  0  0  0  0
  5 13  1  0  0  0  0
  5 14  1  0  0  0  0
  6  7  1  0  0  0  0
  6 13  2  0  0  0  0
  7  8  2  0  0  0  0
  8  9  1  0  0  0  0
 11 15  1  0  0  0  0
 11 16  1  0  0  0  0
 11 17  1  0  0  0  0
 12 18  1  0  0  0  0
 12 19  1  0  0  0  0
 12 20  1  0  0  0  0
 13 21  1  0  0  0  0
M  END
>  <PUBCHEM_COMPOUND_CID>
2153

>  <PUBCHEM_CONFORMER_RMSD>
0.4

>  <PUBCHEM_CONFORMER_DIVERSEORDER>
1

>  <PUBCHEM_MMFF94_PARTIAL_CHARGES>
15
1 -0.57
10 0.69
11 0.3
12 0.3
13 0.04
14 0.27
2 -0.57
21 0.15
3 -0.42
4 -0.42
5 0.03
6 -0.57
7 0.29
8 -0.24
9 0.71

>  <PUBCHEM_EFFECTIVE_ROTOR_COUNT>
0

>  <PUBCHEM_PHARMACOPHORE_FEATURES>
6
1 1 acceptor
1 2 acceptor
1 5 donor
3 5 6 13 cation
5 5 6 7 8 13 rings
6 3 4 7 8 9 10 rings

>  <PUBCHEM_HEAVY_ATOM_COUNT>
13

>  <PUBCHEM_ATOM_DEF_STEREO_COUNT>
0

>  <PUBCHEM_ATOM_UDEF_STEREO_COUNT>
0

>  <PUBCHEM_BOND_DEF_STEREO_COUNT>
0

>  <PUBCHEM_BOND_UDEF_STEREO_COUNT>
0

>  <PUBCHEM_ISOTOPIC_ATOM_COUNT>
0

>  <PUBCHEM_COMPONENT_COUNT>
1

>  <PUBCHEM_CACTVS_TAUTO_COUNT>
3

>  <PUBCHEM_CONFORMER_ID>
0000086900000001

>  <PUBCHEM_MMFF94_ENERGY>
19.6157

>  <PUBCHEM_FEATURE_SELFOVERLAP>
30.561

>  <PUBCHEM_SHAPE_FINGERPRINT>
10967382 1 18266458715508146407
11206711 2 18337388365482706191
13140716 1 18410855442974673353
13380535 76 18265609892758545043
16945 1 18194682562076654244
193761 8 17834395622774169607
20588541 1 18339083662036224325
21040471 1 18410575119307686368
22802520 49 18129681698333213990
2334 1 18338797921956457219
23402539 116 18199453523539890678
23463225 33 18335419036872571426
23552423 10 18260832613519911294
23559900 14 18343306947309073902
241688 4 18410854382128424057
2748010 2 18410857684958150983
5084963 1 18130509724835564474
528886 8 18411132515625768553
66348 1 18410572864170268163

>  <PUBCHEM_SHAPE_MULTIPOLES>
235.87
3.57
2.67
0.57
0.2
0.72
0
-0.55
0
-0.6
0
0
0.01
0

>  <PUBCHEM_SHAPE_SELFOVERLAP>
510.178

>  <PUBCHEM_SHAPE_VOLUME>
130.4

>  <PUBCHEM_COORDINATE_TYPE>
2
5
10

$$$$
222284
 OpenBabel10062414423D

 80 83  0  0  1  0  0  0  0  0999 V2000
    8.4283    0.6445   -0.1446 O   0  0  0  0  0  0  0  0  0  0  0  0
   -0.2872    0.0123    0.1257 C   0  0  1  0  0  0  0  0  0  0  0  0
    0.6661   -1.1090    0.5847 C   0  0  2  0  0  0  0  0  0  0  0  0
    2.0573   -1.0191   -0.0507 C   0  0  1  0  0  0  0  0  0  0  0  0
    2.6946    0.3603    0.2868 C   0  0  1  0  0  0  0  0  0  0  0  0
   -1.5629   -0.4188    0.8897 C   0  0  2  0  0  0  0  0  0  0  0  0
    0.3166    1.3472    0.5839 C   0  0  0  0  0  0  0  0  0  0  0  0
    4.1197    0.5180   -0.3802 C   0  0  2  0  0  0  0  0  0  0  0  0
   -0.1508   -2.3825    0.3886 C   0  0  0  0  0  0  0  0  0  0  0  0
    1.7320    1.5493    0.0157 C   0  0  0  0  0  0  0  0  0  0  0  0
   -1.5947   -1.9550    0.7117 C   0  0  0  0  0  0  0  0  0  0  0  0
    2.9596   -2.1558    0.4526 C   0  0  0  0  0  0  0  0  0  0  0  0
   -2.8643    0.2524    0.4751 C   0  0  1  0  0  0  0  0  0  0  0  0
   -0.5351    0.0425   -1.4030 C   0  0  0  0  0  0  0  0  0  0  0  0
    4.9489   -0.7622   -0.2058 C   0  0  0  0  0  0  0  0  0  0  0  0
    4.8561    1.7012    0.3164 C   0  0  0  0  0  0  0  0  0  0  0  0
    4.4124   -1.9334    0.1786 C   0  0  0  0  0  0  0  0  0  0  0  0
    4.0026    0.8086   -1.8959 C   0  0  0  0  0  0  0  0  0  0  0  0
    6.4322   -0.6661   -0.4787 C   0  0  0  0  0  0  0  0  0  0  0  0
   -4.0376   -0.3133    1.3029 C   0  0  0  0  0  0  0  0  0  0  0  0
    6.3411    1.8086   -0.0274 C   0  0  0  0  0  0  0  0  0  0  0  0
    7.0718    0.5030    0.2650 C   0  0  2  0  0  0  0  0  0  0  0  0
   -2.7406    1.7731    0.6174 C   0  0  0  0  0  0  0  0  0  0  0  0
   -5.4119    0.3345    1.0658 C   0  0  0  0  0  0  0  0  0  0  0  0
   -6.0130    0.1702   -0.3544 C   0  0  2  0  0  0  0  0  0  0  0  0
   -7.3512    0.9571   -0.5286 C   0  0  0  0  0  0  0  0  0  0  0  0
   -6.1390   -1.3295   -0.7206 C   0  0  0  0  0  0  0  0  0  0  0  0
   -7.1854    2.4548   -0.2412 C   0  0  0  0  0  0  0  0  0  0  0  0
   -8.5123    0.4009    0.3000 C   0  0  0  0  0  0  0  0  0  0  0  0
   -6.6532   -1.5939   -2.1295 C   0  0  0  0  0  0  0  0  0  0  0  0
    0.8136   -1.0087    1.6735 H   0  0  0  0  0  0  0  0  0  0  0  0
    1.9672   -1.1253   -1.1375 H   0  0  0  0  0  0  0  0  0  0  0  0
    2.8515    0.3581    1.3780 H   0  0  0  0  0  0  0  0  0  0  0  0
   -1.4036   -0.2228    1.9617 H   0  0  0  0  0  0  0  0  0  0  0  0
    0.3699    1.3832    1.6796 H   0  0  0  0  0  0  0  0  0  0  0  0
   -0.2615    2.2158    0.2718 H   0  0  0  0  0  0  0  0  0  0  0  0
    0.1827   -3.1891    1.0494 H   0  0  0  0  0  0  0  0  0  0  0  0
   -0.0823   -2.7486   -0.6419 H   0  0  0  0  0  0  0  0  0  0  0  0
    1.6465    1.7370   -1.0586 H   0  0  0  0  0  0  0  0  0  0  0  0
    2.1451    2.4647    0.4545 H   0  0  0  0  0  0  0  0  0  0  0  0
   -2.2573   -2.2670   -0.1037 H   0  0  0  0  0  0  0  0  0  0  0  0
   -1.9450   -2.4429    1.6282 H   0  0  0  0  0  0  0  0  0  0  0  0
    2.6516   -3.0945   -0.0237 H   0  0  0  0  0  0  0  0  0  0  0  0
    2.8391   -2.2953    1.5342 H   0  0  0  0  0  0  0  0  0  0  0  0
   -3.0802    0.0298   -0.5765 H   0  0  0  0  0  0  0  0  0  0  0  0
   -1.1517    0.8977   -1.6956 H   0  0  0  0  0  0  0  0  0  0  0  0
    0.3921    0.1241   -1.9767 H   0  0  0  0  0  0  0  0  0  0  0  0
   -1.0434   -0.8588   -1.7605 H   0  0  0  0  0  0  0  0  0  0  0  0
    4.7706    1.5960    1.4065 H   0  0  0  0  0  0  0  0  0  0  0  0
    4.3763    2.6533    0.0602 H   0  0  0  0  0  0  0  0  0  0  0  0
    5.0548   -2.8015    0.3055 H   0  0  0  0  0  0  0  0  0  0  0  0
    3.3961    0.0550   -2.4087 H   0  0  0  0  0  0  0  0  0  0  0  0
    3.5533    1.7885   -2.0865 H   0  0  0  0  0  0  0  0  0  0  0  0
    4.9777    0.8208   -2.3943 H   0  0  0  0  0  0  0  0  0  0  0  0
    6.9544   -1.5905   -0.1999 H   0  0  0  0  0  0  0  0  0  0  0  0
    6.6032   -0.5614   -1.5576 H   0  0  0  0  0  0  0  0  0  0  0  0
   -4.1226   -1.3958    1.1687 H   0  0  0  0  0  0  0  0  0  0  0  0
   -3.8024   -0.1748    2.3677 H   0  0  0  0  0  0  0  0  0  0  0  0
    6.4750    2.0909   -1.0790 H   0  0  0  0  0  0  0  0  0  0  0  0
    6.7975    2.6215    0.5509 H   0  0  0  0  0  0  0  0  0  0  0  0
    7.0668    0.3133    1.3455 H   0  0  0  0  0  0  0  0  0  0  0  0
   -2.1696    2.2064   -0.2044 H   0  0  0  0  0  0  0  0  0  0  0  0
   -2.3016    2.0625    1.5773 H   0  0  0  0  0  0  0  0  0  0  0  0
   -3.7088    2.2738    0.5416 H   0  0  0  0  0  0  0  0  0  0  0  0
   -5.3698    1.3861    1.3574 H   0  0  0  0  0  0  0  0  0  0  0  0
   -6.1020   -0.1285    1.7837 H   0  0  0  0  0  0  0  0  0  0  0  0
   -5.3012    0.6155   -1.0628 H   0  0  0  0  0  0  0  0  0  0  0  0
    8.8822   -0.1928    0.0515 H   0  0  0  0  0  0  0  0  0  0  0  0
   -7.6409    0.8845   -1.5847 H   0  0  0  0  0  0  0  0  0  0  0  0
   -5.1513   -1.7996   -0.6633 H   0  0  0  0  0  0  0  0  0  0  0  0
   -6.7719   -1.8528    0.0049 H   0  0  0  0  0  0  0  0  0  0  0  0
   -6.3166    2.8620   -0.7684 H   0  0  0  0  0  0  0  0  0  0  0  0
   -7.0729    2.6604    0.8277 H   0  0  0  0  0  0  0  0  0  0  0  0
   -8.0683    3.0059   -0.5842 H   0  0  0  0  0  0  0  0  0  0  0  0
   -9.4262    0.9750    0.1096 H   0  0  0  0  0  0  0  0  0  0  0  0
   -8.3075    0.4563    1.3735 H   0  0  0  0  0  0  0  0  0  0  0  0
   -8.7293   -0.6401    0.0453 H   0  0  0  0  0  0  0  0  0  0  0  0
   -7.7023   -1.3048   -2.2378 H   0  0  0  0  0  0  0  0  0  0  0  0
   -6.5830   -2.6622   -2.3593 H   0  0  0  0  0  0  0  0  0  0  0  0
   -6.0620   -1.0488   -2.8719 H   0  0  0  0  0  0  0  0  0  0  0  0
  1 22  1  0  0  0  0
  1 68  1  0  0  0  0
  2  3  1  0  0  0  0
  2  6  1  0  0  0  0
  2  7  1  0  0  0  0
  2 14  1  6  0  0  0
  3  4  1  0  0  0  0
  3  9  1  0  0  0  0
  3 31  1  1  0  0  0
  4  5  1  0  0  0  0
  4 12  1  0  0  0  0
  4 32  1  6  0  0  0
  5  8  1  0  0  0  0
  5 10  1  0  0  0  0
  5 33  1  1  0  0  0
  6 11  1  0  0  0  0
  6 13  1  0  0  0  0
  6 34  1  1  0  0  0
  7 10  1  0  0  0  0
  7 35  1  0  0  0  0
  7 36  1  0  0  0  0
  8 15  1  0  0  0  0
  8 16  1  0  0  0  0
  8 18  1  6  0  0  0
  9 11  1  0  0  0  0
  9 37  1  0  0  0  0
  9 38  1  0  0  0  0
 10 39  1  0  0  0  0
 10 40  1  0  0  0  0
 11 41  1  0  0  0  0
 11 42  1  0  0  0  0
 12 17  1  0  0  0  0
 12 43  1  0  0  0  0
 12 44  1  0  0  0  0
 13 20  1  0  0  0  0
 13 23  1  0  0  0  0
 13 45  1  6  0  0  0
 14 46  1  0  0  0  0
 14 47  1  0  0  0  0
 14 48  1  0  0  0  0
 15 17  2  0  0  0  0
 15 19  1  0  0  0  0
 16 21  1  0  0  0  0
 16 49  1  0  0  0  0
 16 50  1  0  0  0  0
 17 51  1  0  0  0  0
 18 52  1  0  0  0  0
 18 53  1  0  0  0  0
 18 54  1  0  0  0  0
 19 22  1  0  0  0  0
 19 55  1  0  0  0  0
 19 56  1  0  0  0  0
 20 24  1  0  0  0  0
 20 57  1  0  0  0  0
 20 58  1  0  0  0  0
 21 22  1  0  0  0  0
 21 59  1  0  0  0  0
 21 60  1  0  0  0  0
 22 61  1  1  0  0  0
 23 62  1  0  0  0  0
 23 63  1  0  0  0  0
 23 64  1  0  0  0  0
 24 25  1  0  0  0  0
 24 65  1  0  0  0  0
 24 66  1  0  0  0  0
 25 26  1  0  0  0  0
 25 27  1  0  0  0  0
 25 67  1  6  0  0  0
 26 28  1  0  0  0  0
 26 29  1  0  0  0  0
 26 69  1  0  0  0  0
 27 30  1  0  0  0  0
 27 70  1  0  0  0  0
 27 71  1  0  0  0  0
 28 72  1  0  0  0  0
 28 73  1  0  0  0  0
 28 74  1  0  0  0  0
 29 75  1  0  0  0  0
 29 76  1  0  0  0  0
 29 77  1  0  0  0  0
 30 78  1  0  0  0  0
 30 79  1  0  0  0  0
 30 80  1  0  0  0  0
M  END
>  <PUBCHEM_COMPOUND_CID>
222284

>  <PUBCHEM_CONFORMER_RMSD>
1

>  <PUBCHEM_CONFORMER_DIVERSEORDER>
1
7
8
4
9
6
2
3
5

>  <PUBCHEM_MMFF94_PARTIAL_CHARGES>
9
1 -0.68
12 0.14
15 -0.28
17 -0.29
19 0.14
22 0.28
51 0.15
68 0.4
8 0.14

>  <PUBCHEM_EFFECTIVE_ROTOR_COUNT>
8

>  <PUBCHEM_PHARMACOPHORE_FEATURES>
10
1 1 acceptor
1 1 donor
1 23 hydrophobe
1 30 hydrophobe
3 26 28 29 hydrophobe
5 2 3 6 9 11 rings
6 13 20 24 25 26 27 hydrophobe
6 2 3 4 5 7 10 rings
6 4 5 8 12 15 17 rings
6 8 15 16 19 21 22 rings

>  <PUBCHEM_HEAVY_ATOM_COUNT>
30

>  <PUBCHEM_ATOM_DEF_STEREO_COUNT>
9

>  <PUBCHEM_ATOM_UDEF_STEREO_COUNT>
0

>  <PUBCHEM_BOND_DEF_STEREO_COUNT>
0

>  <PUBCHEM_BOND_UDEF_STEREO_COUNT>
0

>  <PUBCHEM_ISOTOPIC_ATOM_COUNT>
0

>  <PUBCHEM_COMPONENT_COUNT>
1

>  <PUBCHEM_CACTVS_TAUTO_COUNT>
1

>  <PUBCHEM_CONFORMER_ID>
0003644C00000001

>  <PUBCHEM_MMFF94_ENERGY>
90.9091

>  <PUBCHEM_FEATURE_SELFOVERLAP>
50.849

>  <PUBCHEM_SHAPE_FINGERPRINT>
10 15 17894912962691494840
10076449 9 11383835982963215482
10411042 1 17832142720078186058
11135609 187 18410853248584332891
11135926 11 18259699000522354623
11315181 36 17632860837383960579
12082328 90 18409166619981770583
12236239 1 17989208144091680235
12838862 33 18337379509782536968
13533116 47 18342458102240903018
13690498 29 17987786524120535047
13782708 43 13542465341568485693
14117953 113 18261119573829353044
14251764 18 18343302578599469754
14251764 46 18259704502385562184
14856354 85 16343703249310428493
15131766 46 15794290607525213190
15142383 8 17240198846641461188
15183329 4 18060137631200354107
15352257 5 12103842359007724805
15439362 3 17982163732782906712
15461852 350 18202004364841154580
1577012 14 18411976954032003219
15849732 13 18260832609109029677
18681886 176 17917702539820496131
20105231 36 10159704616242060456
20157964 124 18410014308169195138
21150785 3 17490151919498884705
21298829 104 18334577940605644357
21792934 111 18335973174265083016
23559900 14 18339078314701993961
255183 451 17912371927388375470
2838139 119 18261111898427590197
335352 9 18410580587724291966
350125 39 18335420144953151713
3633792 109 18340491071152922336
4073 2 18113343033286644251
4325135 7 18272370863067426989
4760202 170 18340195333234445469
5104073 3 18189347787725460544
54039377 194 17917145131061195975
59755656 215 18334859398264945875
6009941 240 17385730222093131690
6086070 43 17632293527242487011
6328613 192 18411699885675543795

>  <PUBCHEM_SHAPE_MULTIPOLES>
611.52
23.14
2.24
1.21
14.41
0.26
-0.49
-6.8
-4.35
0.18
0.08
1.18
0.2
-0.94

>  <PUBCHEM_SHAPE_SELFOVERLAP>
1259.421

>  <PUBCHEM_SHAPE_VOLUME>
351.6

>  <PUBCHEM_COORDINATE_TYPE>
2
5
10

$$$$
2519
 OpenBabel10062414423D

 24 25  0  0  0  0  0  0  0  0999 V2000
    0.4700    2.5688    0.0006 O   0  0  0  0  0  0  0  0  0  0  0  0
   -3.1271   -0.4436   -0.0003 O   0  0  0  0  0  0  0  0  0  0  0  0
   -0.9686   -1.3125    0.0000 N   0  0  0  0  0  0  0  0  0  0  0  0
    2.2182    0.1412   -0.0003 N   0  0  0  0  0  0  0  0  0  0  0  0
   -1.3477    1.0797   -0.0001 N   0  0  0  0  0  0  0  0  0  0  0  0
    1.4119   -1.9372    0.0002 N   0  0  0  0  0  0  0  0  0  0  0  0
    0.8579    0.2592   -0.0008 C   0  0  0  0  0  0  0  0  0  0  0  0
    0.3897   -1.0264   -0.0004 C   0  0  0  0  0  0  0  0  0  0  0  0
    0.0307    1.4220   -0.0006 C   0  0  0  0  0  0  0  0  0  0  0  0
   -1.9061   -0.2495   -0.0004 C   0  0  0  0  0  0  0  0  0  0  0  0
    2.5032   -1.1998    0.0003 C   0  0  0  0  0  0  0  0  0  0  0  0
   -1.4276   -2.6960    0.0008 C   0  0  0  0  0  0  0  0  0  0  0  0
    3.1926    1.2061    0.0003 C   0  0  0  0  0  0  0  0  0  0  0  0
   -2.2969    2.1881    0.0007 C   0  0  0  0  0  0  0  0  0  0  0  0
    3.5163   -1.5787    0.0008 H   0  0  0  0  0  0  0  0  0  0  0  0
   -1.0451   -3.1973   -0.8937 H   0  0  0  0  0  0  0  0  0  0  0  0
   -2.5186   -2.7596    0.0011 H   0  0  0  0  0  0  0  0  0  0  0  0
   -1.0447   -3.1963    0.8957 H   0  0  0  0  0  0  0  0  0  0  0  0
    4.1992    0.7801    0.0002 H   0  0  0  0  0  0  0  0  0  0  0  0
    3.0468    1.8092   -0.8992 H   0  0  0  0  0  0  0  0  0  0  0  0
    3.0466    1.8083    0.9004 H   0  0  0  0  0  0  0  0  0  0  0  0
   -1.8087    3.1651   -0.0003 H   0  0  0  0  0  0  0  0  0  0  0  0
   -2.9322    2.1027    0.8881 H   0  0  0  0  0  0  0  0  0  0  0  0
   -2.9346    2.1021   -0.8849 H   0  0  0  0  0  0  0  0  0  0  0  0
  1  9  2  0  0  0  0
  2 10  2  0  0  0  0
  3  8  1  0  0  0  0
  3 10  1  0  0  0  0
  3 12  1  0  0  0  0
  4  7  1  0  0  0  0
  4 11  1  0  0  0  0
  4 13  1  0  0  0  0
  5  9  1  0  0  0  0
  5 10  1  0  0  0  0
  5 14  1  0  0  0  0
  6  8  1  0  0  0  0
  6 11  2  0  0  0  0
  7  8  2  0  0  0  0
  7  9  1  0  0  0  0
 11 15  1  0  0  0  0
 12 16  1  0  0  0  0
 12 17  1  0  0  0  0
 12 18  1  0  0  0  0
 13 19  1  0  0  0  0
 13 20  1  0  0  0  0
 13 21  1  0  0  0  0
 14 22  1  0  0  0  0
 14 23  1  0  0  0  0
 14 24  1  0  0  0  0
M  END
>  <PUBCHEM_COMPOUND_CID>
2519

>  <PUBCHEM_CONFORMER_RMSD>
0.4

>  <PUBCHEM_CONFORMER_DIVERSEORDER>
1

>  <PUBCHEM_MMFF94_PARTIAL_CHARGES>
15
1 -0.57
10 0.69
11 0.04
12 0.3
13 0.26
14 0.3
15 0.15
2 -0.57
3 -0.42
4 0.05
5 -0.42
6 -0.57
7 -0.24
8 0.29
9 0.71

>  <PUBCHEM_EFFECTIVE_ROTOR_COUNT>
0

>  <PUBCHEM_PHARMACOPHORE_FEATURES>
5
1 1 acceptor
1 2 acceptor
3 4 6 11 cation
5 4 6 7 8 11 rings
6 3 5 7 8 9 10 rings

>  <PUBCHEM_HEAVY_ATOM_COUNT>
14

>  <PUBCHEM_ATOM_DEF_STEREO_COUNT>
0

>  <PUBCHEM_ATOM_UDEF_STEREO_COUNT>
0

>  <PUBCHEM_BOND_DEF_STEREO_COUNT>
0

>  <PUBCHEM_BOND_UDEF_STEREO_COUNT>
0

>  <PUBCHEM_ISOTOPIC_ATOM_COUNT>
0

>  <PUBCHEM_COMPONENT_COUNT>
1

>  <PUBCHEM_CACTVS_TAUTO_COUNT>
1

>  <PUBCHEM_CONFORMER_ID>
000009D700000001

>  <PUBCHEM_MMFF94_ENERGY>
22.901

>  <PUBCHEM_FEATURE_SELFOVERLAP>
25.487

>  <PUBCHEM_SHAPE_FINGERPRINT>
10967382 1 18338799025773621285
11132069 177 18339075025094499008
12524768 44 18342463625094026902
13140716 1 17978511158789908153
16945 1 18338517550775811621
193761 8 15816500986559935910
20588541 1 18339082691204868851
21501502 16 18338796715286957384
22802520 49 18128840606503503494
2334 1 18338516344016692929
23402539 116 18270382932679789735
23552423 10 18262240993325675966
23559900 14 18199193898169584358
241688 4 18266458702623303353
2748010 2 18266180539182415717
5084963 1 17698433339235542986
528886 8 18267580380709240570
53812653 166 18198902694142226312
66348 1 18339079396917369615

>  <PUBCHEM_SHAPE_MULTIPOLES>
256.45
4.01
2.83
0.58
0.71
0.08
0
-0.48
0
-0.81
0
0.01
0
0

>  <PUBCHEM_SHAPE_SELFOVERLAP>
550.88

>  <PUBCHEM_SHAPE_VOLUME>
143.9

>  <PUBCHEM_COORDINATE_TYPE>
2
5
10

$$$$
259846
 OpenBabel10062414423D

 81 85  0  0  1  0  0  0  0  0999 V2000
   -5.8132    1.6024    0.9021 O   0  0  0  0  0  0  0  0  0  0  0  0
   -0.4748   -1.0328    0.2422 C   0  0  1  0  0  0  0  0  0  0  0  0
    1.0209   -1.0594   -0.4060 C   0  0  1  0  0  0  0  0  0  0  0  0
   -1.0743    0.4210    0.0655 C   0  0  1  0  0  0  0  0  0  0  0  0
    1.9040    0.0418    0.3176 C   0  0  1  0  0  0  0  0  0  0  0  0
   -2.6277    0.6170    0.3660 C   0  0  2  0  0  0  0  0  0  0  0  0
    3.3720   -0.0287   -0.1541 C   0  0  2  0  0  0  0  0  0  0  0  0
    3.9892   -1.4153    0.1497 C   0  0  1  0  0  0  0  0  0  0  0  0
   -3.4214   -0.4969   -0.4021 C   0  0  1  0  0  0  0  0  0  0  0  0
    1.7096   -2.4654   -0.2708 C   0  0  0  0  0  0  0  0  0  0  0  0
   -1.4159   -2.0523   -0.4560 C   0  0  0  0  0  0  0  0  0  0  0  0
   -0.1606    1.4824    0.7202 C   0  0  0  0  0  0  0  0  0  0  0  0
    1.2787    1.4379    0.1982 C   0  0  0  0  0  0  0  0  0  0  0  0
    3.2123   -2.4888   -0.6230 C   0  0  0  0  0  0  0  0  0  0  0  0
   -2.8937   -1.9089   -0.0799 C   0  0  0  0  0  0  0  0  0  0  0  0
    4.4203    0.9493    0.4088 C   0  0  1  0  0  0  0  0  0  0  0  0
   -4.9975   -0.3725   -0.3558 C   0  0  0  0  0  0  0  0  0  0  0  0
   -3.0651    2.0170   -0.1994 C   0  0  0  0  0  0  0  0  0  0  0  0
   -0.4046   -1.4451    1.7436 C   0  0  0  0  0  0  0  0  0  0  0  0
    0.9673   -0.7790   -1.9480 C   0  0  0  0  0  0  0  0  0  0  0  0
    5.4246   -1.1865   -0.3422 C   0  0  0  0  0  0  0  0  0  0  0  0
    5.7676    0.2385    0.1292 C   0  0  0  0  0  0  0  0  0  0  0  0
   -2.9247    0.6213    1.8835 C   0  0  0  0  0  0  0  0  0  0  0  0
   -5.4525    1.1221   -0.3905 C   0  0  2  0  0  0  0  0  0  0  0  0
   -4.3835    2.0340   -0.9813 C   0  0  0  0  0  0  0  0  0  0  0  0
    4.0431   -1.7967    1.6514 C   0  0  0  0  0  0  0  0  0  0  0  0
    4.3970    2.3131   -0.2029 C   0  0  0  0  0  0  0  0  0  0  0  0
   -5.5588   -1.0420   -1.6443 C   0  0  0  0  0  0  0  0  0  0  0  0
   -5.6382   -1.1203    0.8326 C   0  0  0  0  0  0  0  0  0  0  0  0
    4.5667    2.3733   -1.6919 C   0  0  0  0  0  0  0  0  0  0  0  0
    4.2332    3.4194    0.5376 C   0  0  0  0  0  0  0  0  0  0  0  0
   -1.0214    0.6256   -1.0110 H   0  0  0  0  0  0  0  0  0  0  0  0
    1.9218   -0.1768    1.3896 H   0  0  0  0  0  0  0  0  0  0  0  0
    3.3703    0.0967   -1.2419 H   0  0  0  0  0  0  0  0  0  0  0  0
   -3.1560   -0.3422   -1.4613 H   0  0  0  0  0  0  0  0  0  0  0  0
    1.1970   -3.1953   -0.9096 H   0  0  0  0  0  0  0  0  0  0  0  0
    1.6146   -2.8506    0.7457 H   0  0  0  0  0  0  0  0  0  0  0  0
   -1.0967   -3.0777   -0.2334 H   0  0  0  0  0  0  0  0  0  0  0  0
   -1.3633   -1.9467   -1.5431 H   0  0  0  0  0  0  0  0  0  0  0  0
   -0.1364    1.3575    1.8074 H   0  0  0  0  0  0  0  0  0  0  0  0
   -0.5480    2.4915    0.5436 H   0  0  0  0  0  0  0  0  0  0  0  0
    1.3128    1.7966   -0.8361 H   0  0  0  0  0  0  0  0  0  0  0  0
    1.8470    2.1512    0.8002 H   0  0  0  0  0  0  0  0  0  0  0  0
    3.6180   -3.4842   -0.4025 H   0  0  0  0  0  0  0  0  0  0  0  0
    3.3399   -2.3510   -1.7029 H   0  0  0  0  0  0  0  0  0  0  0  0
   -3.4476   -2.6590   -0.6550 H   0  0  0  0  0  0  0  0  0  0  0  0
   -3.0498   -2.1654    0.9714 H   0  0  0  0  0  0  0  0  0  0  0  0
    4.2865    1.0305    1.4958 H   0  0  0  0  0  0  0  0  0  0  0  0
   -2.3051    2.4178   -0.8819 H   0  0  0  0  0  0  0  0  0  0  0  0
   -3.1255    2.7483    0.6175 H   0  0  0  0  0  0  0  0  0  0  0  0
   -1.3826   -1.5059    2.2138 H   0  0  0  0  0  0  0  0  0  0  0  0
    0.0126   -2.4470    1.8730 H   0  0  0  0  0  0  0  0  0  0  0  0
    0.1875   -0.7625    2.3553 H   0  0  0  0  0  0  0  0  0  0  0  0
    1.9551   -0.7878   -2.4146 H   0  0  0  0  0  0  0  0  0  0  0  0
    0.4009   -1.5483   -2.4805 H   0  0  0  0  0  0  0  0  0  0  0  0
    0.5309    0.1881   -2.2019 H   0  0  0  0  0  0  0  0  0  0  0  0
    5.4693   -1.2221   -1.4380 H   0  0  0  0  0  0  0  0  0  0  0  0
    6.1375   -1.9246    0.0396 H   0  0  0  0  0  0  0  0  0  0  0  0
    6.3340    0.1822    1.0681 H   0  0  0  0  0  0  0  0  0  0  0  0
    6.4337    0.7325   -0.5828 H   0  0  0  0  0  0  0  0  0  0  0  0
   -3.8692    1.1146    2.1188 H   0  0  0  0  0  0  0  0  0  0  0  0
   -3.0047   -0.3779    2.3090 H   0  0  0  0  0  0  0  0  0  0  0  0
   -2.1685    1.1684    2.4520 H   0  0  0  0  0  0  0  0  0  0  0  0
   -6.3618    1.2159   -0.9967 H   0  0  0  0  0  0  0  0  0  0  0  0
   -4.7480    3.0684   -1.0116 H   0  0  0  0  0  0  0  0  0  0  0  0
   -4.1908    1.7440   -2.0217 H   0  0  0  0  0  0  0  0  0  0  0  0
    3.0530   -1.8808    2.1063 H   0  0  0  0  0  0  0  0  0  0  0  0
    4.5358   -2.7685    1.7760 H   0  0  0  0  0  0  0  0  0  0  0  0
    4.6080   -1.0784    2.2530 H   0  0  0  0  0  0  0  0  0  0  0  0
   -6.6531   -0.9787   -1.6757 H   0  0  0  0  0  0  0  0  0  0  0  0
   -5.2994   -2.1036   -1.7021 H   0  0  0  0  0  0  0  0  0  0  0  0
   -5.1760   -0.5544   -2.5479 H   0  0  0  0  0  0  0  0  0  0  0  0
   -5.4599   -2.1995    0.7775 H   0  0  0  0  0  0  0  0  0  0  0  0
   -6.7260   -0.9807    0.8375 H   0  0  0  0  0  0  0  0  0  0  0  0
   -5.2615   -0.7738    1.7974 H   0  0  0  0  0  0  0  0  0  0  0  0
   -6.1037    2.5253    0.8051 H   0  0  0  0  0  0  0  0  0  0  0  0
    5.4318    1.8135   -2.0526 H   0  0  0  0  0  0  0  0  0  0  0  0
    3.6739    2.0022   -2.2043 H   0  0  0  0  0  0  0  0  0  0  0  0
    4.7089    3.4073   -2.0285 H   0  0  0  0  0  0  0  0  0  0  0  0
    4.2154    4.4045    0.0834 H   0  0  0  0  0  0  0  0  0  0  0  0
    4.1121    3.3677    1.6144 H   0  0  0  0  0  0  0  0  0  0  0  0
  1 24  1  0  0  0  0
  1 76  1  0  0  0  0
  2  3  1  0  0  0  0
  2  4  1  0  0  0  0
  2 11  1  0  0  0  0
  2 19  1  1  0  0  0
  3  5  1  0  0  0  0
  3 10  1  0  0  0  0
  3 20  1  6  0  0  0
  4  6  1  0  0  0  0
  4 12  1  0  0  0  0
  4 32  1  6  0  0  0
  5  7  1  0  0  0  0
  5 13  1  0  0  0  0
  5 33  1  1  0  0  0
  6  9  1  0  0  0  0
  6 18  1  0  0  0  0
  6 23  1  1  0  0  0
  7  8  1  0  0  0  0
  7 16  1  0  0  0  0
  7 34  1  6  0  0  0
  8 14  1  0  0  0  0
  8 21  1  0  0  0  0
  8 26  1  1  0  0  0
  9 15  1  0  0  0  0
  9 17  1  0  0  0  0
  9 35  1  6  0  0  0
 10 14  1  0  0  0  0
 10 36  1  0  0  0  0
 10 37  1  0  0  0  0
 11 15  1  0  0  0  0
 11 38  1  0  0  0  0
 11 39  1  0  0  0  0
 12 13  1  0  0  0  0
 12 40  1  0  0  0  0
 12 41  1  0  0  0  0
 13 42  1  0  0  0  0
 13 43  1  0  0  0  0
 14 44  1  0  0  0  0
 14 45  1  0  0  0  0
 15 46  1  0  0  0  0
 15 47  1  0  0  0  0
 16 22  1  0  0  0  0
 16 27  1  0  0  0  0
 16 48  1  1  0  0  0
 17 24  1  0  0  0  0
 17 28  1  0  0  0  0
 17 29  1  0  0  0  0
 18 25  1  0  0  0  0
 18 49  1  0  0  0  0
 18 50  1  0  0  0  0
 19 51  1  0  0  0  0
 19 52  1  0  0  0  0
 19 53  1  0  0  0  0
 20 54  1  0  0  0  0
 20 55  1  0  0  0  0
 20 56  1  0  0  0  0
 21 22  1  0  0  0  0
 21 57  1  0  0  0  0
 21 58  1  0  0  0  0
 22 59  1  0  0  0  0
 22 60  1  0  0  0  0
 23 61  1  0  0  0  0
 23 62  1  0  0  0  0
 23 63  1  0  0  0  0
 24 25  1  0  0  0  0
 24 64  1  6  0  0  0
 25 65  1  0  0  0  0
 25 66  1  0  0  0  0
 26 67  1  0  0  0  0
 26 68  1  0  0  0  0
 26 69  1  0  0  0  0
 27 30  1  0  0  0  0
 27 31  2  0  0  0  0
 28 70  1  0  0  0  0
 28 71  1  0  0  0  0
 28 72  1  0  0  0  0
 29 73  1  0  0  0  0
 29 74  1  0  0  0  0
 29 75  1  0  0  0  0
 30 77  1  0  0  0  0
 30 78  1  0  0  0  0
 30 79  1  0  0  0  0
 31 80  1  0  0  0  0
 31 81  1  0  0  0  0
M  END
>  <PUBCHEM_COMPOUND_CID>
259846

>  <PUBCHEM_CONFORMER_RMSD>
0.8

>  <PUBCHEM_CONFORMER_DIVERSEORDER>
1

>  <PUBCHEM_MMFF94_PARTIAL_CHARGES>
9
1 -0.68
16 0.14
24 0.28
27 -0.28
30 0.14
31 -0.3
76 0.4
80 0.15
81 0.15

>  <PUBCHEM_EFFECTIVE_ROTOR_COUNT>
3.6

>  <PUBCHEM_PHARMACOPHORE_FEATURES>
8
1 1 acceptor
1 1 donor
3 17 28 29 hydrophobe
5 7 8 16 21 22 rings
6 2 3 4 5 12 13 rings
6 2 4 6 9 11 15 rings
6 3 5 7 8 10 14 rings
6 6 9 17 18 24 25 rings

>  <PUBCHEM_HEAVY_ATOM_COUNT>
31

>  <PUBCHEM_ATOM_DEF_STEREO_COUNT>
10

>  <PUBCHEM_ATOM_UDEF_STEREO_COUNT>
0

>  <PUBCHEM_BOND_DEF_STEREO_COUNT>
0

>  <PUBCHEM_BOND_UDEF_STEREO_COUNT>
0

>  <PUBCHEM_ISOTOPIC_ATOM_COUNT>
0

>  <PUBCHEM_COMPONENT_COUNT>
1

>  <PUBCHEM_CACTVS_TAUTO_COUNT>
1

>  <PUBCHEM_CONFORMER_ID>
0003F70600000001

>  <PUBCHEM_MMFF94_ENERGY>
160.0254

>  <PUBCHEM_FEATURE_SELFOVERLAP>
40.693

>  <PUBCHEM_SHAPE_FINGERPRINT>
10595046 47 18342735230467681589
10906281 52 18130522876431554575
11578080 2 14202839803428238436
12107183 9 17832138321218135658
12166972 35 18408325484068315460
12236239 1 17989203733302795990
12403259 415 18040712537565770117
12403260 363 18339638941188604664
12422481 6 17749383775921909628
12633257 1 17603854642537821232
12788726 201 17346046584352592617
13224815 77 18272938215182959130
13583140 156 17967543341376938320
13782708 43 17604144826885957498
13811026 1 18408599284154408043
13944108 23 16025613078700670165
14251764 38 18336831883508108165
14528608 73 18413389860500812764
14787075 74 18411979178444942771
14790565 3 18413109489098451981
14856354 85 16702024214577822679
15183329 4 18411694370731742479
15196674 1 18412261731532219599
15788980 27 18335985289608279579
15961568 22 17749392602465325124
17349148 13 17917993862571491331
17844677 252 18335144171987757261
18608769 82 18265616670739574219
18681886 176 18272364262077518826
20511986 3 18341879810437057082
20715895 44 18266453200812778237
21033648 144 18335692897125656236
21033648 29 17168131343338827213
21267235 1 18341901774868666982
21315764 268 18260541182814491541
22149856 69 18131080333475382307
22393880 68 18188763942940863493
23227448 37 18410291436506834790
23402539 116 18131062710955398063
23522609 53 17986698006939714945
23559900 14 18271244915937530374
255183 451 17842847612309080582
2838139 119 18341608252197234029
3004659 81 18409727340303449986
335352 9 18411419506379802038
34797466 226 17988931092899714287
3493558 16 18410579469862462468
350125 39 18410011040300333188
3680242 22 18337107856794853714
4015057 19 18410007754086135369
4073 2 18041003972218024115
4325135 7 18273210898514667447
4340502 62 17821725074451790370
474 4 18260831522851562114
484989 97 18340777030624375770
5104073 3 18407761430529371545
513532 50 17917720102416646916
5283173 99 18334852767099652685
53794403 172 18261681492811859732
6036956 94 16245463314908217348
6086070 43 17897984872907745486
67856867 119 18411694392116973072

>  <PUBCHEM_SHAPE_MULTIPOLES>
632.1
14.08
3.04
1.39
5.06
1
-0.01
3.51
1.12
-2.56
0.17
0.3
-0.11
-0.53

>  <PUBCHEM_SHAPE_SELFOVERLAP>
1333.4

>  <PUBCHEM_SHAPE_VOLUME>
354.4

>  <PUBCHEM_COORDINATE_TYPE>
2
5
10

$$$$
289
 OpenBabel10062414423D

 14 14  0  0  0  0  0  0  0  0999 V2000
    1.7858    1.3900    0.0004 O   0  0  0  0  0  0  0  0  0  0  0  0
    1.7858   -1.3900   -0.0001 O   0  0  0  0  0  0  0  0  0  0  0  0
    0.6128    0.6973   -0.0003 C   0  0  0  0  0  0  0  0  0  0  0  0
    0.6127   -0.6974   -0.0001 C   0  0  0  0  0  0  0  0  0  0  0  0
   -0.5952    1.3949   -0.0002 C   0  0  0  0  0  0  0  0  0  0  0  0
   -0.5953   -1.3948    0.0001 C   0  0  0  0  0  0  0  0  0  0  0  0
   -1.8032    0.6974    0.0001 C   0  0  0  0  0  0  0  0  0  0  0  0
   -1.8033   -0.6974    0.0001 C   0  0  0  0  0  0  0  0  0  0  0  0
   -0.6022    2.4815    0.0000 H   0  0  0  0  0  0  0  0  0  0  0  0
   -0.6100   -2.4814    0.0003 H   0  0  0  0  0  0  0  0  0  0  0  0
   -2.7438    1.2404    0.0002 H   0  0  0  0  0  0  0  0  0  0  0  0
   -2.7440   -1.2403    0.0003 H   0  0  0  0  0  0  0  0  0  0  0  0
    2.5187    0.7500    0.0006 H   0  0  0  0  0  0  0  0  0  0  0  0
    1.5910   -2.3429    0.0000 H   0  0  0  0  0  0  0  0  0  0  0  0
  1  3  1  0  0  0  0
  1 13  1  0  0  0  0
  2  4  1  0  0  0  0
  2 14  1  0  0  0  0
  3  4  1  0  0  0  0
  3  5  2  0  0  0  0
  4  6  2  0  0  0  0
  5  7  1  0  0  0  0
  5  9  1  0  0  0  0
  6  8  1  0  0  0  0
  6 10  1  0  0  0  0
  7  8  2  0  0  0  0
  7 11  1  0  0  0  0
  8 12  1  0  0  0  0
M  END
>  <PUBCHEM_COMPOUND_CID>
289

>  <PUBCHEM_CONFORMER_RMSD>
0.4

>  <PUBCHEM_CONFORMER_DIVERSEORDER>
1

>  <PUBCHEM_MMFF94_PARTIAL_CHARGES>
14
1 -0.53
10 0.15
11 0.15
12 0.15
13 0.45
14 0.45
2 -0.53
3 0.08
4 0.08
5 -0.15
6 -0.15
7 -0.15
8 -0.15
9 0.15

>  <PUBCHEM_EFFECTIVE_ROTOR_COUNT>
0

>  <PUBCHEM_PHARMACOPHORE_FEATURES>
3
1 1 donor
1 2 donor
6 3 4 5 6 7 8 rings

>  <PUBCHEM_HEAVY_ATOM_COUNT>
8

>  <PUBCHEM_ATOM_DEF_STEREO_COUNT>
0

>  <PUBCHEM_ATOM_UDEF_STEREO_COUNT>
0

>  <PUBCHEM_BOND_DEF_STEREO_COUNT>
0

>  <PUBCHEM_BOND_UDEF_STEREO_COUNT>
0

>  <PUBCHEM_ISOTOPIC_ATOM_COUNT>
0

>  <PUBCHEM_COMPONENT_COUNT>
1

>  <PUBCHEM_CACTVS_TAUTO_COUNT>
6

>  <PUBCHEM_CONFORMER_ID>
0000012100000001

>  <PUBCHEM_MMFF94_ENERGY>
17.416

>  <PUBCHEM_FEATURE_SELFOVERLAP>
15.227

>  <PUBCHEM_SHAPE_FINGERPRINT>
16714656 1 17907302044052260854
18185500 45 18124311863841961887
21040471 1 18338797922051597637
23552423 10 18261396671511714934
29004967 10 18116721909416247465

>  <PUBCHEM_SHAPE_MULTIPOLES>
152.9
2.26
1.75
0.59
0.07
0
0
0
0
0.31
0
-0.05
0
0

>  <PUBCHEM_SHAPE_SELFOVERLAP>
319.585

>  <PUBCHEM_SHAPE_VOLUME>
86.9

>  <PUBCHEM_COORDINATE_TYPE>
2
5
10

$$$$
3314
 OpenBabel10062414423D

 24 24  0  0  0  0  0  0  0  0999 V2000
    2.0666    1.4819    0.5333 O   0  0  0  0  0  0  0  0  0  0  0  0
    3.0579   -0.9369   -0.4101 O   0  0  0  0  0  0  0  0  0  0  0  0
   -0.9919   -0.5156    0.4023 C   0  0  0  0  0  0  0  0  0  0  0  0
   -2.4471   -0.3684    0.6927 C   0  0  0  0  0  0  0  0  0  0  0  0
   -0.1282    0.5611    0.6039 C   0  0  0  0  0  0  0  0  0  0  0  0
    1.2330    0.4237    0.3316 C   0  0  0  0  0  0  0  0  0  0  0  0
   -0.4943   -1.7296   -0.0715 C   0  0  0  0  0  0  0  0  0  0  0  0
    1.7303   -0.7904   -0.1421 C   0  0  0  0  0  0  0  0  0  0  0  0
    0.8666   -1.8670   -0.3438 C   0  0  0  0  0  0  0  0  0  0  0  0
   -3.2408    0.1086   -0.4960 C   0  0  0  0  0  0  0  0  0  0  0  0
    2.2644    2.3700   -0.5652 C   0  0  0  0  0  0  0  0  0  0  0  0
   -3.9163    1.2627   -0.5351 C   0  0  0  0  0  0  0  0  0  0  0  0
   -2.8600   -1.3313    1.0209 H   0  0  0  0  0  0  0  0  0  0  0  0
   -2.5849    0.3063    1.5481 H   0  0  0  0  0  0  0  0  0  0  0  0
   -0.5103    1.5101    0.9727 H   0  0  0  0  0  0  0  0  0  0  0  0
   -1.1567   -2.5758   -0.2342 H   0  0  0  0  0  0  0  0  0  0  0  0
    1.2408   -2.8182   -0.7126 H   0  0  0  0  0  0  0  0  0  0  0  0
   -3.2737   -0.5407   -1.3677 H   0  0  0  0  0  0  0  0  0  0  0  0
    1.3175    2.8354   -0.8569 H   0  0  0  0  0  0  0  0  0  0  0  0
    2.7003    1.8386   -1.4172 H   0  0  0  0  0  0  0  0  0  0  0  0
    2.9576    3.1548   -0.2508 H   0  0  0  0  0  0  0  0  0  0  0  0
    3.2185   -1.8416   -0.7290 H   0  0  0  0  0  0  0  0  0  0  0  0
   -4.4748    1.5427   -1.4215 H   0  0  0  0  0  0  0  0  0  0  0  0
   -3.9234    1.9441    0.3084 H   0  0  0  0  0  0  0  0  0  0  0  0
  1  6  1  0  0  0  0
  1 11  1  0  0  0  0
  2  8  1  0  0  0  0
  2 22  1  0  0  0  0
  3  4  1  0  0  0  0
  3  5  2  0  0  0  0
  3  7  1  0  0  0  0
  4 10  1  0  0  0  0
  4 13  1  0  0  0  0
  4 14  1  0  0  0  0
  5  6  1  0  0  0  0
  5 15  1  0  0  0  0
  6  8  2  0  0  0  0
  7  9  2  0  0  0  0
  7 16  1  0  0  0  0
  8  9  1  0  0  0  0
  9 17  1  0  0  0  0
 10 12  2  0  0  0  0
 10 18  1  0  0  0  0
 11 19  1  0  0  0  0
 11 20  1  0  0  0  0
 11 21  1  0  0  0  0
 12 23  1  0  0  0  0
 12 24  1  0  0  0  0
M  END
>  <PUBCHEM_COMPOUND_CID>
3314

>  <PUBCHEM_CONFORMER_RMSD>
0.6

>  <PUBCHEM_CONFORMER_DIVERSEORDER>
1
7
6
2
8
5
9
3
4

>  <PUBCHEM_MMFF94_PARTIAL_CHARGES>
19
1 -0.36
10 -0.29
11 0.28
12 -0.3
15 0.15
16 0.15
17 0.15
18 0.15
2 -0.53
22 0.45
23 0.15
24 0.15
3 -0.14
4 0.28
5 -0.15
6 0.08
7 -0.15
8 0.08
9 -0.15

>  <PUBCHEM_EFFECTIVE_ROTOR_COUNT>
3

>  <PUBCHEM_PHARMACOPHORE_FEATURES>
4
1 1 acceptor
1 12 hydrophobe
1 2 donor
6 3 5 6 7 8 9 rings

>  <PUBCHEM_HEAVY_ATOM_COUNT>
12

>  <PUBCHEM_ATOM_DEF_STEREO_COUNT>
0

>  <PUBCHEM_ATOM_UDEF_STEREO_COUNT>
0

>  <PUBCHEM_BOND_DEF_STEREO_COUNT>
0

>  <PUBCHEM_BOND_UDEF_STEREO_COUNT>
0

>  <PUBCHEM_ISOTOPIC_ATOM_COUNT>
0

>  <PUBCHEM_COMPONENT_COUNT>
1

>  <PUBCHEM_CACTVS_TAUTO_COUNT>
3

>  <PUBCHEM_CONFORMER_ID>
00000CF200000001

>  <PUBCHEM_MMFF94_ENERGY>
35.5333

>  <PUBCHEM_FEATURE_SELFOVERLAP>
20.297

>  <PUBCHEM_SHAPE_FINGERPRINT>
10149128 76 18337389443461656621
10608611 8 18334857225544458337
11206711 2 18196667197755345276
12932764 1 17822010895982825227
13380535 21 18124049067588474250
13380536 305 18410294692102672318
13922767 16 18411693262403359352
14325111 11 18411698824639208651
14415576 193 18411135818914762949
14648413 74 18334581264783380107
14897335 6 18199180861978184152
14911166 2 18341620274069223390
14993402 34 18271250426248514014
15219456 202 18335425694382960795
15279308 100 18408609183779575958
16945 1 18341061713329765850
18186145 218 18343310262095515161
20201158 50 18339642222633464815
20233049 118 18115027390209799772
20606313 2 18339077069208690583
20653085 51 18407761439235382521
21040471 1 18055073417765351322
21130352 189 18335420140768837252
21524375 3 18265891556465708673
21947302 44 18335697230768457553
23402655 69 18198613334143792805
23559900 14 17699588123842943452
25 1 18336548192712757975
2748010 2 18198071467509626530
3060560 45 18199461082814265687
3071541 158 18336553733125559524

>  <PUBCHEM_SHAPE_MULTIPOLES>
235.22
5.24
2.13
0.81
3.94
0.52
-0.02
2.23
1.08
-1.36
0.38
0.13
0.07
0.33

>  <PUBCHEM_SHAPE_SELFOVERLAP>
481.034

>  <PUBCHEM_SHAPE_VOLUME>
136.6

>  <PUBCHEM_COORDINATE_TYPE>
2
5
10

$$$$
370
 OpenBabel10062414423D

 18 18  0  0  0  0  0  0  0  0999 V2000
    3.1158   -0.0411   -0.0006 O   0  0  0  0  0  0  0  0  0  0  0  0
    1.7728    2.3803   -0.0004 O   0  0  0  0  0  0  0  0  0  0  0  0
    1.6770   -2.4076   -0.0008 O   0  0  0  0  0  0  0  0  0  0  0  0
   -3.0362   -1.1764   -0.0008 O   0  0  0  0  0  0  0  0  0  0  0  0
   -3.1863    1.0917   -0.0004 O   0  0  0  0  0  0  0  0  0  0  0  0
   -1.0366    0.0417    0.0005 C   0  0  0  0  0  0  0  0  0  0  0  0
    1.7526   -0.0142    0.0004 C   0  0  0  0  0  0  0  0  0  0  0  0
    1.0793    1.2075    0.0001 C   0  0  0  0  0  0  0  0  0  0  0  0
    1.0312   -1.2081    0.0008 C   0  0  0  0  0  0  0  0  0  0  0  0
   -0.3153    1.2354    0.0002 C   0  0  0  0  0  0  0  0  0  0  0  0
   -0.3635   -1.1801    0.0008 C   0  0  0  0  0  0  0  0  0  0  0  0
   -2.4908    0.0708    0.0002 C   0  0  0  0  0  0  0  0  0  0  0  0
   -0.8342    2.1912   -0.0001 H   0  0  0  0  0  0  0  0  0  0  0  0
   -0.8919   -2.1299    0.0007 H   0  0  0  0  0  0  0  0  0  0  0  0
    3.4410    0.8760   -0.0010 H   0  0  0  0  0  0  0  0  0  0  0  0
    1.1431    3.1216   -0.0006 H   0  0  0  0  0  0  0  0  0  0  0  0
    2.6353   -2.2390   -0.0011 H   0  0  0  0  0  0  0  0  0  0  0  0
   -4.0167   -1.1460   -0.0016 H   0  0  0  0  0  0  0  0  0  0  0  0
  1  7  1  0  0  0  0
  1 15  1  0  0  0  0
  2  8  1  0  0  0  0
  2 16  1  0  0  0  0
  3  9  1  0  0  0  0
  3 17  1  0  0  0  0
  4 12  1  0  0  0  0
  4 18  1  0  0  0  0
  5 12  2  0  0  0  0
  6 10  2  0  0  0  0
  6 11  1  0  0  0  0
  6 12  1  0  0  0  0
  7  8  2  0  0  0  0
  7  9  1  0  0  0  0
  8 10  1  0  0  0  0
  9 11  2  0  0  0  0
 10 13  1  0  0  0  0
 11 14  1  0  0  0  0
M  END
>  <PUBCHEM_COMPOUND_CID>
370

>  <PUBCHEM_CONFORMER_RMSD>
0.4

>  <PUBCHEM_CONFORMER_DIVERSEORDER>
1
2

>  <PUBCHEM_MMFF94_PARTIAL_CHARGES>
18
1 -0.53
10 -0.15
11 -0.15
12 0.63
13 0.15
14 0.15
15 0.45
16 0.45
17 0.45
18 0.5
2 -0.53
3 -0.53
4 -0.65
5 -0.57
6 0.09
7 0.08
8 0.08
9 0.08

>  <PUBCHEM_EFFECTIVE_ROTOR_COUNT>
1

>  <PUBCHEM_PHARMACOPHORE_FEATURES>
7
1 1 donor
1 2 donor
1 3 donor
1 4 acceptor
1 5 acceptor
3 4 5 12 anion
6 6 7 8 9 10 11 rings

>  <PUBCHEM_HEAVY_ATOM_COUNT>
12

>  <PUBCHEM_ATOM_DEF_STEREO_COUNT>
0

>  <PUBCHEM_ATOM_UDEF_STEREO_COUNT>
0

>  <PUBCHEM_BOND_DEF_STEREO_COUNT>
0

>  <PUBCHEM_BOND_UDEF_STEREO_COUNT>
0

>  <PUBCHEM_ISOTOPIC_ATOM_COUNT>
0

>  <PUBCHEM_COMPONENT_COUNT>
1

>  <PUBCHEM_CACTVS_TAUTO_COUNT>
14

>  <PUBCHEM_CONFORMER_ID>
0000017200000001

>  <PUBCHEM_MMFF94_ENERGY>
30.8768

>  <PUBCHEM_FEATURE_SELFOVERLAP>
35.587

>  <PUBCHEM_SHAPE_FINGERPRINT>
13380535 76 18051971721354596008
14325111 11 18338516460028510049
16945 1 18410855451559378181
17990270 104 18410011009597330035
193761 8 17473825503503695104
19973954 147 18410576176043876937
20201158 50 18408039593896548051
20645477 70 18341327877449731991
20871998 22 17982454793524611246
21040471 1 18050568748591052992
23402655 69 18268696231142028549
23552423 10 18410013251696547239
241688 4 17906173949585649520
2748010 2 18121222244747179476
5084963 1 18202004381836381145
528886 8 18411413994886858003
53812653 166 18341888580633831064
63268167 104 18338802204213028849
7364860 26 18343019986635823974

>  <PUBCHEM_SHAPE_MULTIPOLES>
217.61
4.15
2.08
0.57
2.09
0.04
0
-0.07
0
-1
0
0
0
0

>  <PUBCHEM_SHAPE_SELFOVERLAP>
465.41

>  <PUBCHEM_SHAPE_VOLUME>
120.3

>  <PUBCHEM_COORDINATE_TYPE>
2
5
10

$$$$
439246
 OpenBabel10062414423D

 32 34  0  0  1  0  0  0  0  0999 V2000
    0.0447   -0.7890   -0.1534 O   0  0  0  0  0  0  0  0  0  0  0  0
    1.7541    2.9394   -0.0655 O   0  0  0  0  0  0  0  0  0  0  0  0
    4.1136    1.8515    0.1138 O   0  0  0  0  0  0  0  0  0  0  0  0
    4.2929   -2.8906   -0.0094 O   0  0  0  0  0  0  0  0  0  0  0  0
   -6.2197   -0.5953   -0.2336 O   0  0  0  0  0  0  0  0  0  0  0  0
   -0.6674    0.3322    0.3930 C   0  0  1  0  0  0  0  0  0  0  0  0
   -0.2460    1.6333   -0.2872 C   0  0  0  0  0  0  0  0  0  0  0  0
   -2.1517    0.0844    0.2254 C   0  0  0  0  0  0  0  0  0  0  0  0
    2.0471    0.5970   -0.0248 C   0  0  0  0  0  0  0  0  0  0  0  0
    1.2358    1.8296   -0.0979 C   0  0  0  0  0  0  0  0  0  0  0  0
    1.4060   -0.6441   -0.0793 C   0  0  0  0  0  0  0  0  0  0  0  0
    3.4401    0.6689    0.0540 C   0  0  0  0  0  0  0  0  0  0  0  0
    2.1633   -1.8163   -0.0889 C   0  0  0  0  0  0  0  0  0  0  0  0
   -2.9682   -0.0407    1.3488 C   0  0  0  0  0  0  0  0  0  0  0  0
   -2.7007   -0.0184   -1.0523 C   0  0  0  0  0  0  0  0  0  0  0  0
    4.1909   -0.5072    0.0647 C   0  0  0  0  0  0  0  0  0  0  0  0
    3.5546   -1.7467   -0.0116 C   0  0  0  0  0  0  0  0  0  0  0  0
   -4.3355   -0.2692    1.1943 C   0  0  0  0  0  0  0  0  0  0  0  0
   -4.0681   -0.2468   -1.2068 C   0  0  0  0  0  0  0  0  0  0  0  0
   -4.8856   -0.3721   -0.0834 C   0  0  0  0  0  0  0  0  0  0  0  0
   -0.4339    0.3840    1.4669 H   0  0  0  0  0  0  0  0  0  0  0  0
   -0.7758    2.4841    0.1556 H   0  0  0  0  0  0  0  0  0  0  0  0
   -0.4287    1.6248   -1.3676 H   0  0  0  0  0  0  0  0  0  0  0  0
    1.6712   -2.7841   -0.1458 H   0  0  0  0  0  0  0  0  0  0  0  0
   -2.5547    0.0372    2.3507 H   0  0  0  0  0  0  0  0  0  0  0  0
   -2.0793    0.0645   -1.9395 H   0  0  0  0  0  0  0  0  0  0  0  0
    5.2759   -0.4618    0.1250 H   0  0  0  0  0  0  0  0  0  0  0  0
   -4.9672   -0.3660    2.0731 H   0  0  0  0  0  0  0  0  0  0  0  0
   -4.4839   -0.3278   -2.2075 H   0  0  0  0  0  0  0  0  0  0  0  0
    5.0694    1.6789    0.1617 H   0  0  0  0  0  0  0  0  0  0  0  0
    5.2355   -2.6582    0.0493 H   0  0  0  0  0  0  0  0  0  0  0  0
   -6.4270   -0.6383   -1.1829 H   0  0  0  0  0  0  0  0  0  0  0  0
  1  6  1  0  0  0  0
  1 11  1  0  0  0  0
  2 10  2  0  0  0  0
  3 12  1  0  0  0  0
  3 30  1  0  0  0  0
  4 17  1  0  0  0  0
  4 31  1  0  0  0  0
  5 20  1  0  0  0  0
  5 32  1  0  0  0  0
  6  7  1  0  0  0  0
  6  8  1  0  0  0  0
  6 21  1  1  0  0  0
  7 10  1  0  0  0  0
  7 22  1  0  0  0  0
  7 23  1  0  0  0  0
  8 14  2  0  0  0  0
  8 15  1  0  0  0  0
  9 10  1  0  0  0  0
  9 11  1  0  0  0  0
  9 12  2  0  0  0  0
 11 13  2  0  0  0  0
 12 16  1  0  0  0  0
 13 17  1  0  0  0  0
 13 24  1  0  0  0  0
 14 18  1  0  0  0  0
 14 25  1  0  0  0  0
 15 19  2  0  0  0  0
 15 26  1  0  0  0  0
 16 17  2  0  0  0  0
 16 27  1  0  0  0  0
 18 20  2  0  0  0  0
 18 28  1  0  0  0  0
 19 20  1  0  0  0  0
 19 29  1  0  0  0  0
M  END
>  <PUBCHEM_COMPOUND_CID>
439246

>  <PUBCHEM_CONFORMER_RMSD>
0.6

>  <PUBCHEM_CONFORMER_DIVERSEORDER>
1
2
4
3

>  <PUBCHEM_MMFF94_PARTIAL_CHARGES>
29
1 -0.36
10 0.42
11 0.08
12 0.08
13 -0.15
14 -0.15
15 -0.15
16 -0.15
17 0.08
18 -0.15
19 -0.15
2 -0.57
20 0.08
24 0.15
25 0.15
26 0.15
27 0.15
28 0.15
29 0.15
3 -0.53
30 0.45
31 0.45
32 0.45
4 -0.53
5 -0.53
6 0.42
7 0.06
8 -0.14
9 0.09

>  <PUBCHEM_EFFECTIVE_ROTOR_COUNT>
1.6

>  <PUBCHEM_PHARMACOPHORE_FEATURES>
8
1 1 acceptor
1 2 acceptor
1 3 donor
1 4 donor
1 5 donor
6 1 6 7 9 10 11 rings
6 8 14 15 18 19 20 rings
6 9 11 12 13 16 17 rings

>  <PUBCHEM_HEAVY_ATOM_COUNT>
20

>  <PUBCHEM_ATOM_DEF_STEREO_COUNT>
1

>  <PUBCHEM_ATOM_UDEF_STEREO_COUNT>
0

>  <PUBCHEM_BOND_DEF_STEREO_COUNT>
0

>  <PUBCHEM_BOND_UDEF_STEREO_COUNT>
0

>  <PUBCHEM_ISOTOPIC_ATOM_COUNT>
0

>  <PUBCHEM_COMPONENT_COUNT>
1

>  <PUBCHEM_CACTVS_TAUTO_COUNT>
42

>  <PUBCHEM_CONFORMER_ID>
0006B3CE00000001

>  <PUBCHEM_MMFF94_ENERGY>
57.1464

>  <PUBCHEM_FEATURE_SELFOVERLAP>
40.627

>  <PUBCHEM_SHAPE_FINGERPRINT>
10411042 1 18194401096497499894
10912923 1 17775289374169302715
11471102 20 18409167739986922888
11796584 16 16515682217453739826
12107183 9 17911812266988603433
12236239 1 17846782927527132233
12553582 1 18340770347454809686
12670546 56 17846780715271218321
13134695 92 18411134740508959964
13140716 1 18051691341700314056
13167823 11 18130787863002487727
13533116 47 18272650164722211747
13544592 145 17966972716770788683
13544653 18 18335425625310108060
13862211 1 18338234865420683466
13955234 65 18340485685327503208
14386348 63 17821730550577017571
14739800 52 16629947941436961896
14790565 3 17904208371068351932
15196674 1 18410573942260151277
15375462 189 18060137647747350688
15848702 151 18412829058120703567
15961568 22 16154277250766570276
16945 1 18410295852155461268
17349148 13 17846780711028842527
17357779 13 18114170922175851245
1813 80 18200606786772715838
18222031 100 18271244928563761478
200 152 18272086102577871905
20028762 73 18130783430206797126
20279233 1 17749392581021324323
20645477 70 18335135392905805654
21065198 48 18131358488072886857
21065201 7 16588021308006322843
21267235 1 18341056233378757550
21641784 216 17969523545145804468
221357 26 18261384530156296565
221490 88 18335983052420961404
22182313 1 18262780892622565436
22224240 67 18200020885253010696
2255824 54 18270403909495216028
22646028 1 17988924470476783875
23175994 123 18113341899341203757
23557571 272 17167855357525519293
23559900 14 17385448725726135674
2748010 2 18265604391306515124
2871803 45 18114181891432511050
312423 11 18269850739150516656
33824 294 18409164437578864202
345986 75 18059008367991254122
34797466 226 16515980223633069207
42630746 31 18341893026251990796
46194498 28 17531249495308006709
465052 167 18342462534140925783
474 4 18126564750224870688
5104073 3 18339643343424822625
5281201 14 18040434378108529413
573450 72 17203611476061435011
602551 16 15051441769301100109
77492 1 17775571965848046505
7970288 3 18266457603160356258
8272917 22 18412266159332382645
9709674 26 18188495786689594355
9981440 41 17334760372181838777

>  <PUBCHEM_SHAPE_MULTIPOLES>
382.24
10.82
2.18
0.93
8.91
0.34
-0.06
-3.88
0.02
-3.74
0.09
1.12
-0.04
0.02

>  <PUBCHEM_SHAPE_SELFOVERLAP>
848.778

>  <PUBCHEM_SHAPE_VOLUME>
203.4

>  <PUBCHEM_COORDINATE_TYPE>
2
5
10

$$$$
439378
 OpenBabel10062414423D

 26 25  0  0  1  0  0  0  0  0999 V2000
   -1.9675   -1.2196    0.3554 O   0  0  0  0  0  0  0  0  0  0  0  0
    2.5380    1.8110   -0.3931 O   0  0  0  0  0  0  0  0  0  0  0  0
    3.2894    0.5191    1.3121 O   0  0  0  0  0  0  0  0  0  0  0  0
   -2.5201    0.9348   -0.3144 N   0  0  0  0  0  0  0  0  0  0  0  0
    3.0743   -1.6915   -0.3202 N   0  0  0  0  0  0  0  0  0  0  0  0
    0.7650   -0.8902   -0.1770 C   0  0  0  0  0  0  0  0  0  0  0  0
    2.2005   -0.5470   -0.5902 C   0  0  1  0  0  0  0  0  0  0  0  0
   -0.2156    0.2576   -0.4267 C   0  0  0  0  0  0  0  0  0  0  0  0
   -1.6468   -0.1177   -0.0816 C   0  0  0  0  0  0  0  0  0  0  0  0
    2.7446    0.6161    0.2196 C   0  0  0  0  0  0  0  0  0  0  0  0
   -3.9395    0.8453   -0.0611 C   0  0  0  0  0  0  0  0  0  0  0  0
   -4.3223   -0.5178    0.4773 C   0  0  0  0  0  0  0  0  0  0  0  0
    0.7301   -1.1553    0.8888 H   0  0  0  0  0  0  0  0  0  0  0  0
    0.4288   -1.7779   -0.7293 H   0  0  0  0  0  0  0  0  0  0  0  0
    2.2638   -0.3053   -1.6565 H   0  0  0  0  0  0  0  0  0  0  0  0
   -0.1834    0.5550   -1.4815 H   0  0  0  0  0  0  0  0  0  0  0  0
    0.0483    1.1288    0.1832 H   0  0  0  0  0  0  0  0  0  0  0  0
   -2.1585    1.8119   -0.6776 H   0  0  0  0  0  0  0  0  0  0  0  0
    2.7551   -2.4958   -0.8595 H   0  0  0  0  0  0  0  0  0  0  0  0
    2.9947   -1.9654    0.6589 H   0  0  0  0  0  0  0  0  0  0  0  0
   -4.1984    1.6338    0.6521 H   0  0  0  0  0  0  0  0  0  0  0  0
   -4.4571    1.0529   -1.0026 H   0  0  0  0  0  0  0  0  0  0  0  0
   -4.1464   -1.3272   -0.2389 H   0  0  0  0  0  0  0  0  0  0  0  0
   -3.8813   -0.7321    1.4563 H   0  0  0  0  0  0  0  0  0  0  0  0
   -5.4067   -0.5198    0.6475 H   0  0  0  0  0  0  0  0  0  0  0  0
    2.8796    2.5595    0.1411 H   0  0  0  0  0  0  0  0  0  0  0  0
  1  9  2  0  0  0  0
  2 10  1  0  0  0  0
  2 26  1  0  0  0  0
  3 10  2  0  0  0  0
  4  9  1  0  0  0  0
  4 11  1  0  0  0  0
  4 18  1  0  0  0  0
  5  7  1  0  0  0  0
  5 19  1  0  0  0  0
  5 20  1  0  0  0  0
  6  7  1  0  0  0  0
  6  8  1  0  0  0  0
  6 13  1  0  0  0  0
  6 14  1  0  0  0  0
  7 10  1  0  0  0  0
  7 15  1  6  0  0  0
  8  9  1  0  0  0  0
  8 16  1  0  0  0  0
  8 17  1  0  0  0  0
 11 12  1  0  0  0  0
 11 21  1  0  0  0  0
 11 22  1  0  0  0  0
 12 23  1  0  0  0  0
 12 24  1  0  0  0  0
 12 25  1  0  0  0  0
M  END
>  <PUBCHEM_COMPOUND_CID>
439378

>  <PUBCHEM_CONFORMER_RMSD>
0.6

>  <PUBCHEM_CONFORMER_DIVERSEORDER>
1
26
11
15
32
44
35
12
27
29
17
19
34
16
7
42
24
5
38
6
13
31
2
43
21
18
41
14
23
22
40
10
9
28
39
30
25
33
4
37
8
20
36
3

>  <PUBCHEM_MMFF94_PARTIAL_CHARGES>
14
1 -0.57
10 0.66
11 0.3
18 0.37
19 0.36
2 -0.65
20 0.36
26 0.5
3 -0.57
4 -0.73
5 -0.99
7 0.33
8 0.06
9 0.57

>  <PUBCHEM_EFFECTIVE_ROTOR_COUNT>
6

>  <PUBCHEM_PHARMACOPHORE_FEATURES>
7
1 1 acceptor
1 2 acceptor
1 3 acceptor
1 4 donor
1 5 cation
1 5 donor
3 2 3 10 anion

>  <PUBCHEM_HEAVY_ATOM_COUNT>
12

>  <PUBCHEM_ATOM_DEF_STEREO_COUNT>
1

>  <PUBCHEM_ATOM_UDEF_STEREO_COUNT>
0

>  <PUBCHEM_BOND_DEF_STEREO_COUNT>
0

>  <PUBCHEM_BOND_UDEF_STEREO_COUNT>
0

>  <PUBCHEM_ISOTOPIC_ATOM_COUNT>
0

>  <PUBCHEM_COMPONENT_COUNT>
1

>  <PUBCHEM_CACTVS_TAUTO_COUNT>
2

>  <PUBCHEM_CONFORMER_ID>
0006B45200000001

>  <PUBCHEM_MMFF94_ENERGY>
17.2395

>  <PUBCHEM_FEATURE_SELFOVERLAP>
35.58

>  <PUBCHEM_SHAPE_FINGERPRINT>
10608611 8 18409166593415388269
12162725 195 18131073684311911657
12251169 10 18187076282607069016
12932764 1 17704070728513857151
13296908 3 18409172099558037503
14325111 11 18410295800546963751
15775835 57 17346309431929344276
18186145 218 18341055103717611813
190213 19 18408603647888556069
20528008 55 18411418414867199855
20645477 70 18201999876579647111
3248919 1 18335693979161749014
449060 50 18410576222908800085
449060 62 18272939344585460020
522135 26 9511466623520962805
69090 78 18413103970588125439

>  <PUBCHEM_SHAPE_MULTIPOLES>
219.38
7.79
1.42
0.8
4.52
0.03
-0.13
0.57
-1.17
-0.81
0.1
-0.38
0.05
0.5

>  <PUBCHEM_SHAPE_SELFOVERLAP>
416.754

>  <PUBCHEM_SHAPE_VOLUME>
134.6

>  <PUBCHEM_COORDINATE_TYPE>
2
5
10

$$$$
444539
 OpenBabel10062414423D

 19 19  0  0  0  0  0  0  0  0999 V2000
    3.8091    1.0736   -0.2822 O   0  0  0  0  0  0  0  0  0  0  0  0
    3.4672   -1.1212    0.2370 O   0  0  0  0  0  0  0  0  0  0  0  0
   -0.7375   -0.2428    0.0656 C   0  0  0  0  0  0  0  0  0  0  0  0
   -1.1910    1.0706    0.1880 C   0  0  0  0  0  0  0  0  0  0  0  0
   -1.6501   -1.2813   -0.1188 C   0  0  0  0  0  0  0  0  0  0  0  0
    0.6867   -0.5303    0.1284 C   0  0  0  0  0  0  0  0  0  0  0  0
   -2.5571    1.3454    0.1255 C   0  0  0  0  0  0  0  0  0  0  0  0
   -3.0163   -1.0065   -0.1813 C   0  0  0  0  0  0  0  0  0  0  0  0
   -3.4698    0.3069   -0.0592 C   0  0  0  0  0  0  0  0  0  0  0  0
    1.6190    0.3931   -0.0867 C   0  0  0  0  0  0  0  0  0  0  0  0
    3.0396   -0.0077   -0.0163 C   0  0  0  0  0  0  0  0  0  0  0  0
   -0.5263    1.9121    0.3589 H   0  0  0  0  0  0  0  0  0  0  0  0
   -1.3155   -2.3112   -0.2175 H   0  0  0  0  0  0  0  0  0  0  0  0
    0.9588   -1.5586    0.3517 H   0  0  0  0  0  0  0  0  0  0  0  0
   -2.9115    2.3672    0.2266 H   0  0  0  0  0  0  0  0  0  0  0  0
   -3.7270   -1.8151   -0.3250 H   0  0  0  0  0  0  0  0  0  0  0  0
   -4.5336    0.5208   -0.1063 H   0  0  0  0  0  0  0  0  0  0  0  0
    1.4149    1.4255   -0.3432 H   0  0  0  0  0  0  0  0  0  0  0  0
    4.7661    0.8609   -0.2483 H   0  0  0  0  0  0  0  0  0  0  0  0
  1 11  1  0  0  0  0
  1 19  1  0  0  0  0
  2 11  2  0  0  0  0
  3  4  2  0  0  0  0
  3  5  1  0  0  0  0
  3  6  1  0  0  0  0
  4  7  1  0  0  0  0
  4 12  1  0  0  0  0
  5  8  2  0  0  0  0
  5 13  1  0  0  0  0
  6 10  2  0  0  0  0
  6 14  1  0  0  0  0
  7  9  2  0  0  0  0
  7 15  1  0  0  0  0
  8  9  1  0  0  0  0
  8 16  1  0  0  0  0
  9 17  1  0  0  0  0
 10 11  1  0  0  0  0
 10 18  1  0  0  0  0
M  END
>  <PUBCHEM_COMPOUND_CID>
444539

>  <PUBCHEM_CONFORMER_RMSD>
0.4

>  <PUBCHEM_CONFORMER_DIVERSEORDER>
1
2
3

>  <PUBCHEM_MMFF94_PARTIAL_CHARGES>
19
1 -0.65
10 -0.14
11 0.71
12 0.15
13 0.15
14 0.15
15 0.15
16 0.15
17 0.15
18 0.15
19 0.5
2 -0.57
3 0.03
4 -0.15
5 -0.15
6 -0.18
7 -0.15
8 -0.15
9 -0.15

>  <PUBCHEM_EFFECTIVE_ROTOR_COUNT>
2

>  <PUBCHEM_PHARMACOPHORE_FEATURES>
4
1 1 acceptor
1 2 acceptor
3 1 2 11 anion
6 3 4 5 7 8 9 rings

>  <PUBCHEM_HEAVY_ATOM_COUNT>
11

>  <PUBCHEM_ATOM_DEF_STEREO_COUNT>
0

>  <PUBCHEM_ATOM_UDEF_STEREO_COUNT>
0

>  <PUBCHEM_BOND_DEF_STEREO_COUNT>
1

>  <PUBCHEM_BOND_UDEF_STEREO_COUNT>
0

>  <PUBCHEM_ISOTOPIC_ATOM_COUNT>
0

>  <PUBCHEM_COMPONENT_COUNT>
1

>  <PUBCHEM_CACTVS_TAUTO_COUNT>
1

>  <PUBCHEM_CONFORMER_ID>
0006C87B00000001

>  <PUBCHEM_MMFF94_ENERGY>
28.3274

>  <PUBCHEM_FEATURE_SELFOVERLAP>
20.353

>  <PUBCHEM_SHAPE_FINGERPRINT>
10608611 8 18413385427962947672
11062470 55 18410292527354609718
12932764 1 17561075943029479822
13024252 1 15864072070601356649
14144814 61 18408604751420825154
14325111 11 18410575076257780144
15669948 3 18271801371383299142
15775835 57 18335706022229058296
18186145 218 17894629240760956070
190213 19 17676488354039121422
20201158 50 17989208131254322599
20279233 1 16774075163805536246
20871998 184 18130230470826645879
23402539 116 18201146694722453125
23463225 33 18337107861195289474
23559900 14 18272646827817316328
3248919 1 17418100883992029762
57096353 35 18337390551462979734
6333449 129 18343863316618333845

>  <PUBCHEM_SHAPE_MULTIPOLES>
214.64
6.66
1.36
0.62
4.33
0.03
0
0.32
-0.28
-0.45
0.01
-0.03
0
-0.28

>  <PUBCHEM_SHAPE_SELFOVERLAP>
446.411

>  <PUBCHEM_SHAPE_VOLUME>
122.1

>  <PUBCHEM_COORDINATE_TYPE>
2
5
10

$$$$
445154
 OpenBabel10062414423D

 29 30  0  0  0  0  0  0  0  0999 V2000
   -4.8060   -2.1619   -0.3965 O   0  0  0  0  0  0  0  0  0  0  0  0
   -4.1010    2.4953    0.3775 O   0  0  0  0  0  0  0  0  0  0  0  0
    6.2037   -0.3631    0.0735 O   0  0  0  0  0  0  0  0  0  0  0  0
   -1.7324   -0.2540    0.0441 C   0  0  0  0  0  0  0  0  0  0  0  0
    2.1022    0.2574   -0.0662 C   0  0  0  0  0  0  0  0  0  0  0  0
   -0.2763   -0.4793    0.0741 C   0  0  0  0  0  0  0  0  0  0  0  0
    0.6650    0.4755   -0.1147 C   0  0  0  0  0  0  0  0  0  0  0  0
   -2.2240    1.0281    0.2263 C   0  0  0  0  0  0  0  0  0  0  0  0
   -2.5810   -1.3290   -0.1646 C   0  0  0  0  0  0  0  0  0  0  0  0
   -3.9593   -1.1159   -0.1919 C   0  0  0  0  0  0  0  0  0  0  0  0
   -3.6023    1.2414    0.1990 C   0  0  0  0  0  0  0  0  0  0  0  0
    2.6160   -0.8654    0.5823 C   0  0  0  0  0  0  0  0  0  0  0  0
    2.9667    1.1719   -0.6680 C   0  0  0  0  0  0  0  0  0  0  0  0
   -4.4698    0.1693   -0.0101 C   0  0  0  0  0  0  0  0  0  0  0  0
    3.9944   -1.0739    0.6292 C   0  0  0  0  0  0  0  0  0  0  0  0
    4.3451    0.9632   -0.6213 C   0  0  0  0  0  0  0  0  0  0  0  0
    4.8590   -0.1596    0.0274 C   0  0  0  0  0  0  0  0  0  0  0  0
    0.0093   -1.5130    0.2494 H   0  0  0  0  0  0  0  0  0  0  0  0
    0.3752    1.4977   -0.3420 H   0  0  0  0  0  0  0  0  0  0  0  0
   -1.5829    1.8840    0.4144 H   0  0  0  0  0  0  0  0  0  0  0  0
   -2.1858   -2.3318   -0.3082 H   0  0  0  0  0  0  0  0  0  0  0  0
    1.9849   -1.5927    1.0844 H   0  0  0  0  0  0  0  0  0  0  0  0
    2.5852    2.0524   -1.1795 H   0  0  0  0  0  0  0  0  0  0  0  0
   -5.5451    0.3285   -0.0325 H   0  0  0  0  0  0  0  0  0  0  0  0
    4.3829   -1.9498    1.1419 H   0  0  0  0  0  0  0  0  0  0  0  0
    5.0137    1.6788   -1.0921 H   0  0  0  0  0  0  0  0  0  0  0  0
   -4.2831   -2.9751   -0.5027 H   0  0  0  0  0  0  0  0  0  0  0  0
   -5.0717    2.4585    0.3285 H   0  0  0  0  0  0  0  0  0  0  0  0
    6.3814   -1.1862    0.5602 H   0  0  0  0  0  0  0  0  0  0  0  0
  1 10  1  0  0  0  0
  1 27  1  0  0  0  0
  2 11  1  0  0  0  0
  2 28  1  0  0  0  0
  3 17  1  0  0  0  0
  3 29  1  0  0  0  0
  4  6  1  0  0  0  0
  4  8  2  0  0  0  0
  4  9  1  0  0  0  0
  5  7  1  0  0  0  0
  5 12  2  0  0  0  0
  5 13  1  0  0  0  0
  6  7  2  0  0  0  0
  6 18  1  0  0  0  0
  7 19  1  0  0  0  0
  8 11  1  0  0  0  0
  8 20  1  0  0  0  0
  9 10  2  0  0  0  0
  9 21  1  0  0  0  0
 10 14  1  0  0  0  0
 11 14  2  0  0  0  0
 12 15  1  0  0  0  0
 12 22  1  0  0  0  0
 13 16  2  0  0  0  0
 13 23  1  0  0  0  0
 14 24  1  0  0  0  0
 15 17  2  0  0  0  0
 15 25  1  0  0  0  0
 16 17  1  0  0  0  0
 16 26  1  0  0  0  0
M  END
>  <PUBCHEM_COMPOUND_CID>
445154

>  <PUBCHEM_CONFORMER_RMSD>
0.6

>  <PUBCHEM_CONFORMER_DIVERSEORDER>
2
1

>  <PUBCHEM_MMFF94_PARTIAL_CHARGES>
29
1 -0.53
10 0.08
11 0.08
12 -0.15
13 -0.15
14 -0.15
15 -0.15
16 -0.15
17 0.08
18 0.15
19 0.15
2 -0.53
20 0.15
21 0.15
22 0.15
23 0.15
24 0.15
25 0.15
26 0.15
27 0.45
28 0.45
29 0.45
3 -0.53
4 0.03
5 0.03
6 -0.18
7 -0.18
8 -0.15
9 -0.15

>  <PUBCHEM_EFFECTIVE_ROTOR_COUNT>
2

>  <PUBCHEM_PHARMACOPHORE_FEATURES>
5
1 1 donor
1 2 donor
1 3 donor
6 4 8 9 10 11 14 rings
6 5 12 13 15 16 17 rings

>  <PUBCHEM_HEAVY_ATOM_COUNT>
17

>  <PUBCHEM_ATOM_DEF_STEREO_COUNT>
0

>  <PUBCHEM_ATOM_UDEF_STEREO_COUNT>
0

>  <PUBCHEM_BOND_DEF_STEREO_COUNT>
1

>  <PUBCHEM_BOND_UDEF_STEREO_COUNT>
0

>  <PUBCHEM_ISOTOPIC_ATOM_COUNT>
0

>  <PUBCHEM_COMPONENT_COUNT>
1

>  <PUBCHEM_CACTVS_TAUTO_COUNT>
20

>  <PUBCHEM_CONFORMER_ID>
0006CAE200000002

>  <PUBCHEM_MMFF94_ENERGY>
49.607

>  <PUBCHEM_FEATURE_SELFOVERLAP>
25.373

>  <PUBCHEM_SHAPE_FINGERPRINT>
10014705 185 18113896031716294869
10595046 47 18336547204748856716
10616163 171 18411139168604729455
10912923 1 18187081750179493368
11315181 36 18408040727672988104
12107183 9 17759799252039973274
12236239 1 18409449181189184810
12670546 56 18335415789967024916
13167823 11 18409165519488960790
13288520 33 18341894117163180047
13583140 156 17418363684266412222
13675066 3 17917988373888227614
13760787 5 17095249124728923956
14251718 22 18342739650105047618
14508225 48 18268695264937878261
14528608 73 18261398892510980172
15042514 8 18197498635496392455
15196674 1 18410012152227455220
15788980 27 18335424569011851848
17834072 33 18335421296283708566
17844677 252 18342745143141762304
18186145 218 16805040731158450208
18681886 176 18341610452132742322
19489759 90 18273493468396678499
200 152 18409728490811561187
20279233 1 16343705430420501028
20281475 54 18334286548670597554
20300324 65 18411419544506804761
20612939 158 17531251699174972428
20645477 56 18343023242838589761
20645477 70 18113333094642728002
21033648 29 16199857384941753498
21065198 48 18335136479680159738
21267235 1 18336553788659707179
21426921 1 18413670210707749065
21709351 56 18333446543356635732
22646028 1 18408039628150693958
2297311 6 18060430126488230821
2306618 200 18060146427472796449
23402539 116 18411415107288824917
23402655 69 18334859407387734340
23557571 272 18131357401076973429
23559900 14 18341321301327255049
29717793 49 18412825789666403054
300161 21 18334006181684594920
34797466 226 17559968769623523516
3545911 37 18342178830044039441
4214541 1 18410292501738007581
474 4 17387136575323497100
4990 188 18272660034662488046
5104073 3 18407759244275226768
542803 24 18342177765198079148
559249 180 18410570643915243458
573450 72 18410005520634134347
6327066 14 18045495310569268317
67856867 119 18336545040212544260
7495541 125 17774720977917645392
77779 3 18409731759423929284
9709674 26 18409738356367816490
9971528 1 17822009839695352596

>  <PUBCHEM_SHAPE_MULTIPOLES>
332.24
12.88
1.74
0.72
5.99
0.25
0
-0.98
-0.25
-2.21
0.01
0.19
0.01
-1.17

>  <PUBCHEM_SHAPE_SELFOVERLAP>
719.006

>  <PUBCHEM_SHAPE_VOLUME>
182.8

>  <PUBCHEM_COORDINATE_TYPE>
2
5
10

$$$$
445858
 OpenBabel10062414423D

 24 24  0  0  0  0  0  0  0  0999 V2000
   -2.5939    1.6627   -0.5178 O   0  0  0  0  0  0  0  0  0  0  0  0
   -3.9859   -0.6823    0.0196 O   0  0  0  0  0  0  0  0  0  0  0  0
    4.4363    1.4715    0.1900 O   0  0  0  0  0  0  0  0  0  0  0  0
    4.5027   -0.7869   -0.1265 O   0  0  0  0  0  0  0  0  0  0  0  0
    0.1654   -0.6897   -0.0534 C   0  0  0  0  0  0  0  0  0  0  0  0
   -1.9252    0.5008   -0.2754 C   0  0  0  0  0  0  0  0  0  0  0  0
   -0.5305    0.4940   -0.2994 C   0  0  0  0  0  0  0  0  0  0  0  0
   -0.5334   -1.8663    0.2168 C   0  0  0  0  0  0  0  0  0  0  0  0
   -2.6238   -0.6759   -0.0052 C   0  0  0  0  0  0  0  0  0  0  0  0
   -1.9280   -1.8595    0.2409 C   0  0  0  0  0  0  0  0  0  0  0  0
    1.6195   -0.6971   -0.0775 C   0  0  0  0  0  0  0  0  0  0  0  0
    2.4088    0.3919    0.0561 C   0  0  0  0  0  0  0  0  0  0  0  0
   -2.8900    2.4872    0.6076 C   0  0  0  0  0  0  0  0  0  0  0  0
    3.8781    0.2496    0.0242 C   0  0  0  0  0  0  0  0  0  0  0  0
   -0.0226    1.4256   -0.5336 H   0  0  0  0  0  0  0  0  0  0  0  0
   -0.0082   -2.7982    0.4126 H   0  0  0  0  0  0  0  0  0  0  0  0
   -2.4599   -2.7831    0.4528 H   0  0  0  0  0  0  0  0  0  0  0  0
    2.0797   -1.6750   -0.2037 H   0  0  0  0  0  0  0  0  0  0  0  0
    2.0150    1.3900    0.2107 H   0  0  0  0  0  0  0  0  0  0  0  0
   -1.9668    2.8147    1.0961 H   0  0  0  0  0  0  0  0  0  0  0  0
   -3.5238    1.9520    1.3218 H   0  0  0  0  0  0  0  0  0  0  0  0
   -3.4302    3.3694    0.2535 H   0  0  0  0  0  0  0  0  0  0  0  0
   -4.2948   -1.5819    0.2229 H   0  0  0  0  0  0  0  0  0  0  0  0
    5.4164    1.4326    0.1760 H   0  0  0  0  0  0  0  0  0  0  0  0
  1  6  1  0  0  0  0
  1 13  1  0  0  0  0
  2  9  1  0  0  0  0
  2 23  1  0  0  0  0
  3 14  1  0  0  0  0
  3 24  1  0  0  0  0
  4 14  2  0  0  0  0
  5  7  2  0  0  0  0
  5  8  1  0  0  0  0
  5 11  1  0  0  0  0
  6  7  1  0  0  0  0
  6  9  2  0  0  0  0
  7 15  1  0  0  0  0
  8 10  2  0  0  0  0
  8 16  1  0  0  0  0
  9 10  1  0  0  0  0
 10 17  1  0  0  0  0
 11 12  2  0  0  0  0
 11 18  1  0  0  0  0
 12 14  1  0  0  0  0
 12 19  1  0  0  0  0
 13 20  1  0  0  0  0
 13 21  1  0  0  0  0
 13 22  1  0  0  0  0
M  END
>  <PUBCHEM_COMPOUND_CID>
445858

>  <PUBCHEM_CONFORMER_RMSD>
0.6

>  <PUBCHEM_CONFORMER_DIVERSEORDER>
1
4
2
3

>  <PUBCHEM_MMFF94_PARTIAL_CHARGES>
21
1 -0.36
10 -0.15
11 -0.18
12 -0.14
13 0.28
14 0.71
15 0.15
16 0.15
17 0.15
18 0.15
19 0.15
2 -0.53
23 0.45
24 0.5
3 -0.65
4 -0.57
5 0.03
6 0.08
7 -0.15
8 -0.15
9 0.08

>  <PUBCHEM_EFFECTIVE_ROTOR_COUNT>
3

>  <PUBCHEM_PHARMACOPHORE_FEATURES>
6
1 1 acceptor
1 2 donor
1 3 acceptor
1 4 acceptor
3 3 4 14 anion
6 5 6 7 8 9 10 rings

>  <PUBCHEM_HEAVY_ATOM_COUNT>
14

>  <PUBCHEM_ATOM_DEF_STEREO_COUNT>
0

>  <PUBCHEM_ATOM_UDEF_STEREO_COUNT>
0

>  <PUBCHEM_BOND_DEF_STEREO_COUNT>
1

>  <PUBCHEM_BOND_UDEF_STEREO_COUNT>
0

>  <PUBCHEM_ISOTOPIC_ATOM_COUNT>
0

>  <PUBCHEM_COMPONENT_COUNT>
1

>  <PUBCHEM_CACTVS_TAUTO_COUNT>
3

>  <PUBCHEM_CONFORMER_ID>
0006CDA200000001

>  <PUBCHEM_MMFF94_ENERGY>
46.3465

>  <PUBCHEM_FEATURE_SELFOVERLAP>
30.501

>  <PUBCHEM_SHAPE_FINGERPRINT>
10608611 8 18412823599328040072
12346645 44 18337108973523098107
12390115 104 18199768967682159065
13024252 1 12035439545883738895
13081056 2 18341896311743645228
13897977 58 18262523705284662012
14123255 52 18122627150199299433
14144814 61 18187077352217469050
14325111 11 18409446977565097822
15042514 8 18264212589674281395
15219456 202 18201164239057585566
16945 1 18336277815989783415
1741750 31 18341331085061996312
17834072 32 18337672997071267341
18186145 218 18339362938169034188
20300324 65 18272645770944131735
20510252 161 18413672409182378801
20645477 56 18337961094828935133
20645477 70 17131846339516638774
21501502 16 18265326218626969971
21524375 3 18338793395229771391
22182937 141 18271815562198143841
2306618 200 18202009832308252731
23402539 116 18340479054341083703
23557571 272 18272101504156762732
23559900 14 18199748060366729406
2748010 2 18191314767104904503
3071541 12 17835805196823786551
4214541 1 18410011027225332180
5104073 3 18408321064989586546
6333449 129 18409728439488088629
69090 78 18271522082534542070
77779 3 18409450302159941750
9709674 26 18412549808027307878

>  <PUBCHEM_SHAPE_MULTIPOLES>
264.64
7.7
2.11
0.66
7.99
0.63
0.01
2.21
0.26
-1.81
0.32
-0.14
0.07
0.03

>  <PUBCHEM_SHAPE_SELFOVERLAP>
550.847

>  <PUBCHEM_SHAPE_VOLUME>
151

>  <PUBCHEM_COORDINATE_TYPE>
2
5
10

$$$$
493570
 OpenBabel10062414423D

 47 49  0  0  1  0  0  0  0  0999 V2000
    1.5771    1.7039    0.6395 O   0  0  0  0  0  0  0  0  0  0  0  0
    3.7723   -0.2458   -1.5605 O   0  0  0  0  0  0  0  0  0  0  0  0
    5.7180    1.2430   -0.2447 O   0  0  0  0  0  0  0  0  0  0  0  0
    5.5145    0.0984    2.2992 O   0  0  0  0  0  0  0  0  0  0  0  0
   -4.6591    1.6319    1.0671 O   0  0  0  0  0  0  0  0  0  0  0  0
   -1.5992    4.6697   -0.5235 O   0  0  0  0  0  0  0  0  0  0  0  0
   -0.3946    0.1687   -0.6768 N   0  0  0  0  0  0  0  0  0  0  0  0
   -2.9293   -0.3520    0.4768 N   0  0  0  0  0  0  0  0  0  0  0  0
   -1.0056    2.4739   -0.6013 N   0  0  0  0  0  0  0  0  0  0  0  0
   -3.1235    3.1865    0.2663 N   0  0  0  0  0  0  0  0  0  0  0  0
    1.9687    0.5944   -0.1701 C   0  0  1  0  0  0  0  0  0  0  0  0
    0.9205    0.4004   -1.2722 C   0  0  0  0  0  0  0  0  0  0  0  0
    3.3813    0.8488   -0.7328 C   0  0  1  0  0  0  0  0  0  0  0  0
    4.4430    1.0385    0.3673 C   0  0  1  0  0  0  0  0  0  0  0  0
   -0.7744   -1.1628   -0.3984 C   0  0  0  0  0  0  0  0  0  0  0  0
   -1.2594    1.2169   -0.3852 C   0  0  0  0  0  0  0  0  0  0  0  0
   -2.0408   -1.3962    0.1756 C   0  0  0  0  0  0  0  0  0  0  0  0
    0.0439   -2.2771   -0.6628 C   0  0  0  0  0  0  0  0  0  0  0  0
   -2.5894    0.8705    0.2258 C   0  0  0  0  0  0  0  0  0  0  0  0
    4.5400   -0.1709    1.2962 C   0  0  0  0  0  0  0  0  0  0  0  0
   -0.3785   -3.5763   -0.3690 C   0  0  0  0  0  0  0  0  0  0  0  0
   -2.4555   -2.7049    0.4666 C   0  0  0  0  0  0  0  0  0  0  0  0
   -1.6286   -3.7907    0.1958 C   0  0  0  0  0  0  0  0  0  0  0  0
   -3.5852    1.9285    0.5726 C   0  0  0  0  0  0  0  0  0  0  0  0
    0.5333   -4.7204   -0.6716 C   0  0  0  0  0  0  0  0  0  0  0  0
   -2.1039   -5.1680    0.5210 C   0  0  0  0  0  0  0  0  0  0  0  0
   -1.8857    3.4912   -0.3009 C   0  0  0  0  0  0  0  0  0  0  0  0
    1.9720   -0.3016    0.4584 H   0  0  0  0  0  0  0  0  0  0  0  0
    0.8753    1.3221   -1.8685 H   0  0  0  0  0  0  0  0  0  0  0  0
    1.2031   -0.3658   -2.0007 H   0  0  0  0  0  0  0  0  0  0  0  0
    3.3733    1.7451   -1.3654 H   0  0  0  0  0  0  0  0  0  0  0  0
    4.2237    1.9412    0.9490 H   0  0  0  0  0  0  0  0  0  0  0  0
    1.0369   -2.1606   -1.0858 H   0  0  0  0  0  0  0  0  0  0  0  0
    3.6022   -0.3935    1.8094 H   0  0  0  0  0  0  0  0  0  0  0  0
    4.8737   -1.0631    0.7577 H   0  0  0  0  0  0  0  0  0  0  0  0
   -3.4369   -2.8635    0.9096 H   0  0  0  0  0  0  0  0  0  0  0  0
    0.7995    1.4293    1.1539 H   0  0  0  0  0  0  0  0  0  0  0  0
    4.6643   -0.0534   -1.8967 H   0  0  0  0  0  0  0  0  0  0  0  0
    6.3691    1.3538    0.4693 H   0  0  0  0  0  0  0  0  0  0  0  0
    1.4773   -4.3846   -1.1148 H   0  0  0  0  0  0  0  0  0  0  0  0
    0.7840   -5.2658    0.2441 H   0  0  0  0  0  0  0  0  0  0  0  0
    0.0677   -5.4054   -1.3876 H   0  0  0  0  0  0  0  0  0  0  0  0
   -3.1083   -5.1583    0.9586 H   0  0  0  0  0  0  0  0  0  0  0  0
   -2.1525   -5.7832   -0.3833 H   0  0  0  0  0  0  0  0  0  0  0  0
   -1.4395   -5.6435    1.2498 H   0  0  0  0  0  0  0  0  0  0  0  0
   -3.7395    3.9683    0.4709 H   0  0  0  0  0  0  0  0  0  0  0  0
    5.2118    0.8746    2.8008 H   0  0  0  0  0  0  0  0  0  0  0  0
  1 11  1  0  0  0  0
  1 37  1  0  0  0  0
  2 13  1  0  0  0  0
  2 38  1  0  0  0  0
  3 14  1  0  0  0  0
  3 39  1  0  0  0  0
  4 20  1  0  0  0  0
  4 47  1  0  0  0  0
  5 24  2  0  0  0  0
  6 27  2  0  0  0  0
  7 12  1  0  0  0  0
  7 15  1  0  0  0  0
  7 16  1  0  0  0  0
  8 17  1  0  0  0  0
  8 19  2  0  0  0  0
  9 16  2  0  0  0  0
  9 27  1  0  0  0  0
 10 24  1  0  0  0  0
 10 27  1  0  0  0  0
 10 46  1  0  0  0  0
 11 12  1  0  0  0  0
 11 13  1  0  0  0  0
 11 28  1  1  0  0  0
 12 29  1  0  0  0  0
 12 30  1  0  0  0  0
 13 14  1  0  0  0  0
 13 31  1  6  0  0  0
 14 20  1  0  0  0  0
 14 32  1  1  0  0  0
 15 17  2  0  0  0  0
 15 18  1  0  0  0  0
 16 19  1  0  0  0  0
 17 22  1  0  0  0  0
 18 21  2  0  0  0  0
 18 33  1  0  0  0  0
 19 24  1  0  0  0  0
 20 34  1  0  0  0  0
 20 35  1  0  0  0  0
 21 23  1  0  0  0  0
 21 25  1  0  0  0  0
 22 23  2  0  0  0  0
 22 36  1  0  0  0  0
 23 26  1  0  0  0  0
 25 40  1  0  0  0  0
 25 41  1  0  0  0  0
 25 42  1  0  0  0  0
 26 43  1  0  0  0  0
 26 44  1  0  0  0  0
 26 45  1  0  0  0  0
M  END
>  <PUBCHEM_COMPOUND_CID>
493570

>  <PUBCHEM_CONFORMER_RMSD>
0.8

>  <PUBCHEM_CONFORMER_DIVERSEORDER>
1
9
5
26
29
25
23
11
17
15
2
27
16
20
18
24
7
6
22
8
21
19
3
14
10
4
28
13
12

>  <PUBCHEM_MMFF94_PARTIAL_CHARGES>
34
1 -0.68
10 -0.49
11 0.28
12 0.37
13 0.28
14 0.28
15 0.1
16 0.5
17 0.18
18 -0.15
19 0.45
2 -0.68
20 0.28
21 -0.14
22 -0.15
23 -0.14
24 0.63
25 0.14
26 0.14
27 0.84
3 -0.68
33 0.15
36 0.15
37 0.4
38 0.4
39 0.4
4 -0.68
46 0.37
47 0.4
5 -0.57
6 -0.57
7 -0.52
8 -0.63
9 -0.66

>  <PUBCHEM_EFFECTIVE_ROTOR_COUNT>
5

>  <PUBCHEM_PHARMACOPHORE_FEATURES>
16
1 1 acceptor
1 1 donor
1 10 donor
1 2 acceptor
1 2 donor
1 3 acceptor
1 3 donor
1 4 acceptor
1 4 donor
1 5 acceptor
1 6 acceptor
1 8 acceptor
1 9 donor
6 15 17 18 21 22 23 rings
6 7 8 15 16 17 19 rings
6 9 10 16 19 24 27 rings

>  <PUBCHEM_HEAVY_ATOM_COUNT>
27

>  <PUBCHEM_ATOM_DEF_STEREO_COUNT>
3

>  <PUBCHEM_ATOM_UDEF_STEREO_COUNT>
0

>  <PUBCHEM_BOND_DEF_STEREO_COUNT>
0

>  <PUBCHEM_BOND_UDEF_STEREO_COUNT>
0

>  <PUBCHEM_ISOTOPIC_ATOM_COUNT>
0

>  <PUBCHEM_COMPONENT_COUNT>
1

>  <PUBCHEM_CACTVS_TAUTO_COUNT>
3

>  <PUBCHEM_CONFORMER_ID>
0007880200000001

>  <PUBCHEM_MMFF94_ENERGY>
79.2049

>  <PUBCHEM_FEATURE_SELFOVERLAP>
81.325

>  <PUBCHEM_SHAPE_FINGERPRINT>
10074138 170 18338781420665934291
10319926 262 18342446081202077976
10411042 1 17762626483061909870
10930396 42 17624374926320004938
1100329 8 18049730904136387507
11049842 53 18192457215763222094
11582403 64 17630304386258991126
12173636 292 18410293566921617508
12553582 1 17691980674975942694
12788726 201 17902245725495219774
13004483 165 17979067511568457163
13140716 1 18122627411875111277
13540713 4 17683539329716307205
138480 1 17112979565343524959
14178342 30 18337382834066326134
14844126 61 18263640834789327826
14849402 71 16538492389168436537
14866123 147 18410291402390390954
15042514 8 18337115686462198519
15131766 46 15178032679193307251
15230672 131 18192439576813351438
15320294 125 17970609828426659002
15326921 28 17976511968164487864
15927050 60 18269562645861818559
16728300 4 17532919524663868625
19591789 44 18122076307594668327
20028762 73 18200606916482045215
20554085 129 18128796578735866625
20600515 1 18055093179110405189
21033648 29 18269833125796390184
212916 134 18271236141076310008
21650355 55 18266177425220304453
21796203 349 17179721514946730258
23559900 14 17472137272271942997
23598288 3 17971214730781837574
3091708 16 8982140822277646431
3298306 158 18124878949854144844
350125 39 17832725473576403373
4409770 3 18262226815754722413
508706 21 18342461452320701342
5265222 85 18193583124460745214
532947 4 17619058439570128086
58807428 26 18338805511448603515
79837 15 18410294679218043651
90316 7 18194404613321075006
9981440 41 18264485079726595569

>  <PUBCHEM_SHAPE_MULTIPOLES>
500.51
8.35
6.53
1.16
14.36
3.63
-0.27
-2.75
-3.7
-8.34
0.41
1.33
0.1
-0.14

>  <PUBCHEM_SHAPE_SELFOVERLAP>
1073.508

>  <PUBCHEM_SHAPE_VOLUME>
273

>  <PUBCHEM_COORDINATE_TYPE>
2
5
10

$$$$
5276890
 OpenBabel10062414423D

 51 54  0  0  1  0  0  0  0  0999 V2000
    2.8816    0.7588   -0.3184 O   0  0  0  0  0  0  0  0  0  0  0  0
   -0.5478   -0.5796    0.0493 O   0  0  0  0  0  0  0  0  0  0  0  0
    3.2692   -4.0553    0.0436 O   0  0  0  0  0  0  0  0  0  0  0  0
    7.1354   -1.3153   -0.3847 O   0  0  0  0  0  0  0  0  0  0  0  0
    0.3833    4.2736    2.5457 O   0  0  0  0  0  0  0  0  0  0  0  0
   -0.9580    4.6117   -2.0396 O   0  0  0  0  0  0  0  0  0  0  0  0
   -0.7394   -2.3126    1.5525 O   0  0  0  0  0  0  0  0  0  0  0  0
   -0.8605    5.6843    0.5115 O   0  0  0  0  0  0  0  0  0  0  0  0
   -5.1906    0.8075   -0.7590 O   0  0  0  0  0  0  0  0  0  0  0  0
   -5.4156   -3.8944    0.1211 O   0  0  0  0  0  0  0  0  0  0  0  0
   -6.6499   -1.5446   -0.6671 O   0  0  0  0  0  0  0  0  0  0  0  0
    0.8466   -0.4808    0.3196 C   0  0  2  0  0  0  0  0  0  0  0  0
    1.4686    0.6267   -0.5426 C   0  0  1  0  0  0  0  0  0  0  0  0
    1.5074   -1.8145   -0.0184 C   0  0  0  0  0  0  0  0  0  0  0  0
    2.9959   -1.6703   -0.1153 C   0  0  0  0  0  0  0  0  0  0  0  0
    0.8454    1.9812   -0.2600 C   0  0  0  0  0  0  0  0  0  0  0  0
    3.5890   -0.4125   -0.2697 C   0  0  0  0  0  0  0  0  0  0  0  0
    3.8111   -2.8095   -0.0796 C   0  0  0  0  0  0  0  0  0  0  0  0
    4.9793   -0.2940   -0.3479 C   0  0  0  0  0  0  0  0  0  0  0  0
    0.2226    2.6856   -1.2876 C   0  0  0  0  0  0  0  0  0  0  0  0
    0.8983    2.5150    1.0256 C   0  0  0  0  0  0  0  0  0  0  0  0
    5.1981   -2.6904   -0.1700 C   0  0  0  0  0  0  0  0  0  0  0  0
    5.7821   -1.4326   -0.3002 C   0  0  0  0  0  0  0  0  0  0  0  0
   -1.2210   -1.5412    0.7374 C   0  0  0  0  0  0  0  0  0  0  0  0
    0.3255    3.7600    1.2851 C   0  0  0  0  0  0  0  0  0  0  0  0
   -0.3503    3.9307   -1.0283 C   0  0  0  0  0  0  0  0  0  0  0  0
   -0.2990    4.4680    0.2580 C   0  0  0  0  0  0  0  0  0  0  0  0
   -2.6585   -1.5419    0.3660 C   0  0  0  0  0  0  0  0  0  0  0  0
   -3.3610   -2.7283    0.4206 C   0  0  0  0  0  0  0  0  0  0  0  0
   -3.2478   -0.3561   -0.0226 C   0  0  0  0  0  0  0  0  0  0  0  0
   -4.5984   -0.3567   -0.3718 C   0  0  0  0  0  0  0  0  0  0  0  0
   -4.7115   -2.7292    0.0714 C   0  0  0  0  0  0  0  0  0  0  0  0
   -5.3302   -1.5433   -0.3248 C   0  0  0  0  0  0  0  0  0  0  0  0
    0.9999   -0.2650    1.3859 H   0  0  0  0  0  0  0  0  0  0  0  0
    1.3185    0.3897   -1.6056 H   0  0  0  0  0  0  0  0  0  0  0  0
    1.1220   -2.2048   -0.9693 H   0  0  0  0  0  0  0  0  0  0  0  0
    1.3010   -2.5657    0.7478 H   0  0  0  0  0  0  0  0  0  0  0  0
    5.4310    0.6898   -0.4523 H   0  0  0  0  0  0  0  0  0  0  0  0
    0.1809    2.2677   -2.2903 H   0  0  0  0  0  0  0  0  0  0  0  0
    1.3937    1.9731    1.8271 H   0  0  0  0  0  0  0  0  0  0  0  0
    5.8308   -3.5741   -0.1386 H   0  0  0  0  0  0  0  0  0  0  0  0
    3.9833   -4.7154    0.0499 H   0  0  0  0  0  0  0  0  0  0  0  0
    7.3657   -0.3743   -0.4715 H   0  0  0  0  0  0  0  0  0  0  0  0
   -2.8767   -3.6518    0.7260 H   0  0  0  0  0  0  0  0  0  0  0  0
   -2.6914    0.5768   -0.0501 H   0  0  0  0  0  0  0  0  0  0  0  0
    0.8508    3.6460    3.1232 H   0  0  0  0  0  0  0  0  0  0  0  0
   -0.8974    4.0874   -2.8566 H   0  0  0  0  0  0  0  0  0  0  0  0
   -1.2451    6.0232   -0.3156 H   0  0  0  0  0  0  0  0  0  0  0  0
   -4.5322    1.5230   -0.7329 H   0  0  0  0  0  0  0  0  0  0  0  0
   -4.8256   -4.6091    0.4163 H   0  0  0  0  0  0  0  0  0  0  0  0
   -6.9902   -2.4515   -0.5749 H   0  0  0  0  0  0  0  0  0  0  0  0
  1 13  1  0  0  0  0
  1 17  1  0  0  0  0
  2 12  1  0  0  0  0
  2 24  1  0  0  0  0
  3 18  1  0  0  0  0
  3 42  1  0  0  0  0
  4 23  1  0  0  0  0
  4 43  1  0  0  0  0
  5 25  1  0  0  0  0
  5 46  1  0  0  0  0
  6 26  1  0  0  0  0
  6 47  1  0  0  0  0
  7 24  2  0  0  0  0
  8 27  1  0  0  0  0
  8 48  1  0  0  0  0
  9 31  1  0  0  0  0
  9 49  1  0  0  0  0
 10 32  1  0  0  0  0
 10 50  1  0  0  0  0
 11 33  1  0  0  0  0
 11 51  1  0  0  0  0
 12 13  1  0  0  0  0
 12 14  1  0  0  0  0
 12 34  1  1  0  0  0
 13 16  1  0  0  0  0
 13 35  1  6  0  0  0
 14 15  1  0  0  0  0
 14 36  1  0  0  0  0
 14 37  1  0  0  0  0
 15 17  1  0  0  0  0
 15 18  2  0  0  0  0
 16 20  2  0  0  0  0
 16 21  1  0  0  0  0
 17 19  2  0  0  0  0
 18 22  1  0  0  0  0
 19 23  1  0  0  0  0
 19 38  1  0  0  0  0
 20 26  1  0  0  0  0
 20 39  1  0  0  0  0
 21 25  2  0  0  0  0
 21 40  1  0  0  0  0
 22 23  2  0  0  0  0
 22 41  1  0  0  0  0
 24 28  1  0  0  0  0
 25 27  1  0  0  0  0
 26 27  2  0  0  0  0
 28 29  2  0  0  0  0
 28 30  1  0  0  0  0
 29 32  1  0  0  0  0
 29 44  1  0  0  0  0
 30 31  2  0  0  0  0
 30 45  1  0  0  0  0
 31 33  1  0  0  0  0
 32 33  2  0  0  0  0
M  END
>  <PUBCHEM_COMPOUND_CID>
5276890

>  <PUBCHEM_CONFORMER_RMSD>
0.8

>  <PUBCHEM_CONFORMER_DIVERSEORDER>
1
53
25
54
46
36
37
38
56
29
41
24
22
34
7
35
13
28
18
45
50
11
48
55
17
42
9
39
30
49
47
6
2
4
51
26
19
31
43
14
32
44
10
52
21
12
33
16
5
23
27
8
3
40
20
15

>  <PUBCHEM_MMFF94_PARTIAL_CHARGES>
47
1 -0.36
10 -0.53
11 -0.53
12 0.28
13 0.42
14 0.14
15 -0.14
16 -0.14
17 0.08
18 0.08
19 -0.15
2 -0.43
20 -0.15
21 -0.15
22 -0.15
23 0.08
24 0.63
25 0.08
26 0.08
27 0.08
28 0.09
29 -0.15
3 -0.53
30 -0.15
31 0.08
32 0.08
33 0.08
38 0.15
39 0.15
4 -0.53
40 0.15
41 0.15
42 0.45
43 0.45
44 0.15
45 0.15
46 0.45
47 0.45
48 0.45
49 0.45
5 -0.53
50 0.45
51 0.45
6 -0.53
7 -0.57
8 -0.53
9 -0.53

>  <PUBCHEM_EFFECTIVE_ROTOR_COUNT>
4.8

>  <PUBCHEM_PHARMACOPHORE_FEATURES>
14
1 1 acceptor
1 10 donor
1 11 donor
1 3 donor
1 4 donor
1 5 donor
1 6 donor
1 7 acceptor
1 8 donor
1 9 donor
6 1 12 13 14 15 17 rings
6 15 17 18 19 22 23 rings
6 16 20 21 25 26 27 rings
6 28 29 30 31 32 33 rings

>  <PUBCHEM_HEAVY_ATOM_COUNT>
33

>  <PUBCHEM_ATOM_DEF_STEREO_COUNT>
2

>  <PUBCHEM_ATOM_UDEF_STEREO_COUNT>
0

>  <PUBCHEM_BOND_DEF_STEREO_COUNT>
0

>  <PUBCHEM_BOND_UDEF_STEREO_COUNT>
0

>  <PUBCHEM_ISOTOPIC_ATOM_COUNT>
0

>  <PUBCHEM_COMPONENT_COUNT>
1

>  <PUBCHEM_CACTVS_TAUTO_COUNT>
1000

>  <PUBCHEM_CONFORMER_ID>
005084DA00000001

>  <PUBCHEM_MMFF94_ENERGY>
98.6833

>  <PUBCHEM_FEATURE_SELFOVERLAP>
71.101

>  <PUBCHEM_SHAPE_FINGERPRINT>
10930396 42 18192968605019162530
11045515 52 18408889520600580691
11093857 51 17320991166824335829
11386260 185 18264190574420093247
11720765 8 18269272520799926625
12156800 1 17901918895194482720
12160290 23 17760968084703825616
12166972 35 18201440337194164675
12342043 65 17316787652488885915
12440605 4 17757278080499540698
12516196 113 18412825798219972514
12788726 201 18262234400857066194
13590594 115 18410302402122954617
13631057 29 18338519643342782750
138480 1 14879189597518333749
14028597 1 17604136031478445698
140371 6 18261127244446004678
14068700 675 18334579027875500502
14681490 219 18335699395121264559
14790565 3 17185315340012882309
14866123 147 17690281508456475467
15131766 46 15695993086954597634
15183329 4 18333448733653611643
15351339 4 18042391444798348523
15420108 30 17331660853678172480
15890870 6 18120370948904226045
15927050 60 17544200376895856258
16087824 20 18265899056455209557
16988056 13 18264762345598426189
17492 89 18121500426033438295
17980427 23 17631749230585070643
18681886 176 18341045323724632130
20642791 13 18263930934772583254
20775438 99 17619888987883660639
21049683 271 18264214780212214060
21133410 127 17536581165554388389
21641784 216 18116454591100371900
221357 26 18334852827572105903
23559900 14 18192708067523079371
23929065 36 18193539105134803464
249057 3 18412261745129739479
255183 313 17908443362955552537
283562 15 18263083223902352162
3004659 81 18040435499633485590
3383291 50 16177071887932625482
4015057 19 18263646332822720275
4046055 25 18334860480903056478
4408954 87 17268661728030368681
44317340 157 18122902303865144799
508180 173 18260545641538891889
57124632 79 17765993187760761473
6004065 56 18267298910149414122
653340 110 18194678173248052850
9962374 69 18124591136181996983
9981440 41 17185871139235821785

>  <PUBCHEM_SHAPE_MULTIPOLES>
614.56
12.45
7.12
1.18
1.26
10.26
-0.28
-17.51
2.81
1.85
-0.9
0.21
1.56
0.74

>  <PUBCHEM_SHAPE_SELFOVERLAP>
1370.451

>  <PUBCHEM_SHAPE_VOLUME>
323.8

>  <PUBCHEM_COORDINATE_TYPE>
2
5
10

$$$$
5280343
 OpenBabel10062414423D

 32 34  0  0  0  0  0  0  0  0999 V2000
   -0.3256   -0.8658   -0.1246 O   0  0  0  0  0  0  0  0  0  0  0  0
    0.7320    2.6650   -0.0692 O   0  0  0  0  0  0  0  0  0  0  0  0
   -4.4111    1.7247    0.1690 O   0  0  0  0  0  0  0  0  0  0  0  0
   -2.0405    2.8247    0.0849 O   0  0  0  0  0  0  0  0  0  0  0  0
   -4.5541   -3.0185    0.0059 O   0  0  0  0  0  0  0  0  0  0  0  0
    4.7260   -0.5543    2.0391 O   0  0  0  0  0  0  0  0  0  0  0  0
    5.9621   -0.7455   -0.4423 O   0  0  0  0  0  0  0  0  0  0  0  0
   -2.3363    0.4858    0.0234 C   0  0  0  0  0  0  0  0  0  0  0  0
   -1.6894   -0.7456   -0.0524 C   0  0  0  0  0  0  0  0  0  0  0  0
    0.4417    0.2883   -0.1097 C   0  0  0  0  0  0  0  0  0  0  0  0
    1.8880    0.0180   -0.1934 C   0  0  0  0  0  0  0  0  0  0  0  0
   -0.0582    1.5360   -0.0489 C   0  0  0  0  0  0  0  0  0  0  0  0
   -1.5283    1.7149    0.0259 C   0  0  0  0  0  0  0  0  0  0  0  0
   -3.7304    0.5474    0.0939 C   0  0  0  0  0  0  0  0  0  0  0  0
   -2.4335   -1.9257   -0.0588 C   0  0  0  0  0  0  0  0  0  0  0  0
   -3.8256   -1.8685    0.0117 C   0  0  0  0  0  0  0  0  0  0  0  0
    2.6365   -0.1435    0.9728 C   0  0  0  0  0  0  0  0  0  0  0  0
   -4.4724   -0.6343    0.0880 C   0  0  0  0  0  0  0  0  0  0  0  0
    2.5093   -0.0766   -1.4389 C   0  0  0  0  0  0  0  0  0  0  0  0
    4.0054   -0.3998    0.8936 C   0  0  0  0  0  0  0  0  0  0  0  0
    3.8783   -0.3325   -1.5181 C   0  0  0  0  0  0  0  0  0  0  0  0
    4.6263   -0.4943   -0.3518 C   0  0  0  0  0  0  0  0  0  0  0  0
   -1.9319   -2.8883   -0.1184 H   0  0  0  0  0  0  0  0  0  0  0  0
    2.1602   -0.0715    1.9482 H   0  0  0  0  0  0  0  0  0  0  0  0
   -5.5576   -0.5880    0.1428 H   0  0  0  0  0  0  0  0  0  0  0  0
    1.9395    0.0465   -2.3567 H   0  0  0  0  0  0  0  0  0  0  0  0
    4.3560   -0.4053   -2.4914 H   0  0  0  0  0  0  0  0  0  0  0  0
    1.6675    2.4118   -0.1228 H   0  0  0  0  0  0  0  0  0  0  0  0
   -3.7963    2.4741    0.1701 H   0  0  0  0  0  0  0  0  0  0  0  0
   -5.4988   -2.7937    0.0605 H   0  0  0  0  0  0  0  0  0  0  0  0
    5.6637   -0.3751    1.8626 H   0  0  0  0  0  0  0  0  0  0  0  0
    6.2712   -1.1700    0.3741 H   0  0  0  0  0  0  0  0  0  0  0  0
  1  9  1  0  0  0  0
  1 10  1  0  0  0  0
  2 12  1  0  0  0  0
  2 28  1  0  0  0  0
  3 14  1  0  0  0  0
  3 29  1  0  0  0  0
  4 13  2  0  0  0  0
  5 16  1  0  0  0  0
  5 30  1  0  0  0  0
  6 20  1  0  0  0  0
  6 31  1  0  0  0  0
  7 22  1  0  0  0  0
  7 32  1  0  0  0  0
  8  9  1  0  0  0  0
  8 13  1  0  0  0  0
  8 14  2  0  0  0  0
  9 15  2  0  0  0  0
 10 11  1  0  0  0  0
 10 12  2  0  0  0  0
 11 17  2  0  0  0  0
 11 19  1  0  0  0  0
 12 13  1  0  0  0  0
 14 18  1  0  0  0  0
 15 16  1  0  0  0  0
 15 23  1  0  0  0  0
 16 18  2  0  0  0  0
 17 20  1  0  0  0  0
 17 24  1  0  0  0  0
 18 25  1  0  0  0  0
 19 21  2  0  0  0  0
 19 26  1  0  0  0  0
 20 22  2  0  0  0  0
 21 22  1  0  0  0  0
 21 27  1  0  0  0  0
M  END
>  <PUBCHEM_COMPOUND_CID>
5280343

>  <PUBCHEM_CONFORMER_RMSD>
0.6

>  <PUBCHEM_CONFORMER_DIVERSEORDER>
2
3
4
1

>  <PUBCHEM_MMFF94_PARTIAL_CHARGES>
32
1 -0.16
10 0.05
11 0.03
12 0.09
13 0.47
14 0.08
15 -0.15
16 0.08
17 -0.15
18 -0.15
19 -0.15
2 -0.53
20 0.08
21 -0.15
22 0.08
23 0.15
24 0.15
25 0.15
26 0.15
27 0.15
28 0.45
29 0.45
3 -0.53
30 0.45
31 0.45
32 0.45
4 -0.57
5 -0.53
6 -0.53
7 -0.53
8 0.09
9 0.08

>  <PUBCHEM_EFFECTIVE_ROTOR_COUNT>
1

>  <PUBCHEM_PHARMACOPHORE_FEATURES>
10
1 1 acceptor
1 2 donor
1 3 donor
1 4 acceptor
1 5 donor
1 6 donor
1 7 donor
6 1 8 9 10 12 13 rings
6 11 17 19 20 21 22 rings
6 8 9 14 15 16 18 rings

>  <PUBCHEM_HEAVY_ATOM_COUNT>
22

>  <PUBCHEM_ATOM_DEF_STEREO_COUNT>
0

>  <PUBCHEM_ATOM_UDEF_STEREO_COUNT>
0

>  <PUBCHEM_BOND_DEF_STEREO_COUNT>
0

>  <PUBCHEM_BOND_UDEF_STEREO_COUNT>
0

>  <PUBCHEM_ISOTOPIC_ATOM_COUNT>
0

>  <PUBCHEM_COMPONENT_COUNT>
1

>  <PUBCHEM_CACTVS_TAUTO_COUNT>
435

>  <PUBCHEM_CONFORMER_ID>
0050925700000002

>  <PUBCHEM_MMFF94_ENERGY>
67.9013

>  <PUBCHEM_FEATURE_SELFOVERLAP>
50.781

>  <PUBCHEM_SHAPE_FINGERPRINT>
10062212 137 18187366532376097179
10319926 262 18198887155530876618
10411042 1 18267306624464364199
10616163 171 18411422791027885687
11045977 3 17988636389587437640
11046707 91 18409731781088721831
11132069 177 18342179934140791333
11370993 144 16773248296511877579
11552529 35 14260485002790182821
12107183 9 17540809500193799274
12236239 1 17821733810620706086
12363563 72 18339368581624426103
12553582 1 18408889555155666595
13140716 1 18340771541661452937
13288520 33 18411422821308590263
13675066 3 17775002409702089546
14386348 63 17846783983788497886
15042514 8 18410580587265310395
15099037 37 18343299271068437565
15196674 1 18411421755945834109
16752209 62 18334289868595986291
16945 1 18411422778686062261
17349148 13 17748826302436736570
17804303 29 18413671322582201833
1813 80 17458069226905034038
18186145 218 12612750207294412564
18222031 100 18270959167125326031
18681886 176 18336270124256880678
19141452 34 17775287205258622471
200 152 16660645137605500828
20028762 73 17986393510885979071
21033648 29 17131540674461138658
21065201 7 18342460283973285510
21267235 1 18337399322303363739
21728266 224 18261944198090091298
2297311 6 18342468031962295414
23366157 5 17970912403723827780
23402539 116 18410573976646049422
23557571 272 18129948871279935700
23559900 14 18200040530026961414
25147074 1 18264788703960466501
2838139 119 14691740792871930569
3004659 81 18186521037688015310
312423 11 18190191263647082733
335352 9 18410856577895734581
474 4 17096946861146042884
5104073 3 18340771541286848633
573450 72 18260825981905919954
59755656 215 18268151959405414926
602551 16 18413105061377832954
67856867 119 18188777270541336308
7495541 125 18131914871464346032
77492 1 17676776383674054532
7970288 3 18338799051639604983
9709674 26 18121220046008890539

>  <PUBCHEM_SHAPE_MULTIPOLES>
411.66
10.99
2.34
1.06
6.01
0.56
0.11
-4.89
0.67
-3.56
0.02
1.76
-0.17
-0.17

>  <PUBCHEM_SHAPE_SELFOVERLAP>
923.873

>  <PUBCHEM_SHAPE_VOLUME>
216

>  <PUBCHEM_COORDINATE_TYPE>
2
5
10

$$$$
5280443
 OpenBabel10062414423D

 30 32  0  0  0  0  0  0  0  0999 V2000
   -0.0681    0.7800   -0.0476 O   0  0  0  0  0  0  0  0  0  0  0  0
   -4.1237   -1.8702    0.1093 O   0  0  0  0  0  0  0  0  0  0  0  0
   -1.7265   -2.9343    0.1829 O   0  0  0  0  0  0  0  0  0  0  0  0
   -4.3310    2.8645   -0.1990 O   0  0  0  0  0  0  0  0  0  0  0  0
    6.2534    0.6490   -0.0391 O   0  0  0  0  0  0  0  0  0  0  0  0
   -2.0651   -0.6003    0.0351 C   0  0  0  0  0  0  0  0  0  0  0  0
   -1.4328    0.6394   -0.0429 C   0  0  0  0  0  0  0  0  0  0  0  0
    0.7138   -0.3621    0.0367 C   0  0  0  0  0  0  0  0  0  0  0  0
    2.1664   -0.0973    0.0176 C   0  0  0  0  0  0  0  0  0  0  0  0
   -1.2389   -1.8145    0.1154 C   0  0  0  0  0  0  0  0  0  0  0  0
    0.2238   -1.6099    0.1094 C   0  0  0  0  0  0  0  0  0  0  0  0
   -3.4593   -0.6835    0.0353 C   0  0  0  0  0  0  0  0  0  0  0  0
   -2.1933    1.8062   -0.1218 C   0  0  0  0  0  0  0  0  0  0  0  0
   -3.5862    1.7275   -0.1217 C   0  0  0  0  0  0  0  0  0  0  0  0
   -4.2176    0.4853   -0.0433 C   0  0  0  0  0  0  0  0  0  0  0  0
    3.0430   -1.0335   -0.5363 C   0  0  0  0  0  0  0  0  0  0  0  0
    2.6702    1.0909    0.5521 C   0  0  0  0  0  0  0  0  0  0  0  0
    4.4151   -0.7831   -0.5550 C   0  0  0  0  0  0  0  0  0  0  0  0
    4.0423    1.3414    0.5331 C   0  0  0  0  0  0  0  0  0  0  0  0
    4.9148    0.4043   -0.0203 C   0  0  0  0  0  0  0  0  0  0  0  0
    0.8368   -2.5001    0.1876 H   0  0  0  0  0  0  0  0  0  0  0  0
   -1.7039    2.7750   -0.1831 H   0  0  0  0  0  0  0  0  0  0  0  0
   -5.3033    0.4227   -0.0434 H   0  0  0  0  0  0  0  0  0  0  0  0
    2.6918   -1.9600   -0.9827 H   0  0  0  0  0  0  0  0  0  0  0  0
    2.0141    1.8350    0.9973 H   0  0  0  0  0  0  0  0  0  0  0  0
    5.0842   -1.5187   -0.9936 H   0  0  0  0  0  0  0  0  0  0  0  0
    4.4259    2.2675    0.9526 H   0  0  0  0  0  0  0  0  0  0  0  0
   -3.4973   -2.6081    0.1620 H   0  0  0  0  0  0  0  0  0  0  0  0
   -5.2737    2.6256   -0.1869 H   0  0  0  0  0  0  0  0  0  0  0  0
    6.7054   -0.1037   -0.4576 H   0  0  0  0  0  0  0  0  0  0  0  0
  1  7  1  0  0  0  0
  1  8  1  0  0  0  0
  2 12  1  0  0  0  0
  2 28  1  0  0  0  0
  3 10  2  0  0  0  0
  4 14  1  0  0  0  0
  4 29  1  0  0  0  0
  5 20  1  0  0  0  0
  5 30  1  0  0  0  0
  6  7  1  0  0  0  0
  6 10  1  0  0  0  0
  6 12  2  0  0  0  0
  7 13  2  0  0  0  0
  8  9  1  0  0  0  0
  8 11  2  0  0  0  0
  9 16  2  0  0  0  0
  9 17  1  0  0  0  0
 10 11  1  0  0  0  0
 11 21  1  0  0  0  0
 12 15  1  0  0  0  0
 13 14  1  0  0  0  0
 13 22  1  0  0  0  0
 14 15  2  0  0  0  0
 15 23  1  0  0  0  0
 16 18  1  0  0  0  0
 16 24  1  0  0  0  0
 17 19  2  0  0  0  0
 17 25  1  0  0  0  0
 18 20  2  0  0  0  0
 18 26  1  0  0  0  0
 19 20  1  0  0  0  0
 19 27  1  0  0  0  0
M  END
>  <PUBCHEM_COMPOUND_CID>
5280443

>  <PUBCHEM_CONFORMER_RMSD>
0.6

>  <PUBCHEM_CONFORMER_DIVERSEORDER>
1

>  <PUBCHEM_MMFF94_PARTIAL_CHARGES>
30
1 -0.16
10 0.47
11 -0.14
12 0.08
13 -0.15
14 0.08
15 -0.15
16 -0.15
17 -0.15
18 -0.15
19 -0.15
2 -0.53
20 0.08
21 0.15
22 0.15
23 0.15
24 0.15
25 0.15
26 0.15
27 0.15
28 0.45
29 0.45
3 -0.57
30 0.45
4 -0.53
5 -0.53
6 0.09
7 0.08
8 0.05
9 0.03

>  <PUBCHEM_EFFECTIVE_ROTOR_COUNT>
1

>  <PUBCHEM_PHARMACOPHORE_FEATURES>
8
1 1 acceptor
1 2 donor
1 3 acceptor
1 4 donor
1 5 donor
6 1 6 7 8 10 11 rings
6 6 7 12 13 14 15 rings
6 9 16 17 18 19 20 rings

>  <PUBCHEM_HEAVY_ATOM_COUNT>
20

>  <PUBCHEM_ATOM_DEF_STEREO_COUNT>
0

>  <PUBCHEM_ATOM_UDEF_STEREO_COUNT>
0

>  <PUBCHEM_BOND_DEF_STEREO_COUNT>
0

>  <PUBCHEM_BOND_UDEF_STEREO_COUNT>
0

>  <PUBCHEM_ISOTOPIC_ATOM_COUNT>
0

>  <PUBCHEM_COMPONENT_COUNT>
1

>  <PUBCHEM_CACTVS_TAUTO_COUNT>
57

>  <PUBCHEM_CONFORMER_ID>
005092BB00000001

>  <PUBCHEM_MMFF94_ENERGY>
60.7436

>  <PUBCHEM_FEATURE_SELFOVERLAP>
40.625

>  <PUBCHEM_SHAPE_FINGERPRINT>
10014705 185 18335983090743610973
10319926 262 18339344337187947850
10411042 1 17833271196427205891
10493431 412 18339369544277550625
10498660 4 18336260146151624709
10608611 8 18342173405853837512
10646746 165 18410292501880224548
11315181 36 17967532415338923724
12107183 9 17973996255225508682
12173636 292 18409726227717107541
12236239 1 17458341966376888130
12390115 104 18270696268119625369
12403259 415 18202279234227041088
12500047 106 18411979165633848254
13073987 5 18334573538601782738
13140716 1 17974859676764465403
13544592 145 18269848531875060550
14508225 48 18124582335750861655
14790565 3 17908712730609502257
15042514 8 18192436496683379403
15196674 1 18411138009184468990
15375358 24 18272089392275024390
17844677 252 18338524131077601056
18186145 218 18201727210401115800
200 152 17060622204808618226
20510252 161 18342459253144016673
20645477 56 18410013234284757832
20645477 70 17203058396143606462
21033648 29 18271516554985427096
21065198 57 18411699920035301594
21236236 1 18412826893710328947
21267235 1 18337116777299593123
21279426 13 18269277859449011198
21421861 104 17750502976618702298
23402539 116 18412538829647092654
23402655 69 18131067100338114972
23557571 272 18342746247148492668
23559900 14 18271807861775124550
245318 6 16448986100328701468
283562 15 18410291424461079675
2916195 48 18342730849902058064
3004659 81 18335425613612532158
335352 9 18267022748231475478
350125 39 18410298038462750009
3545911 37 18342460348455732712
4028521 119 18341892965631935697
4214541 1 18411419514231212472
474 4 16879077545412114420
495365 180 17346021334593014002
5104073 3 18410011005465809410
542803 24 17530686524359763644
559249 180 18337386046670377618
633830 44 18199743644401676445
69090 78 18272086119177836790
77779 3 18412263930592437412
9709674 26 18342463655380539086

>  <PUBCHEM_SHAPE_MULTIPOLES>
382.24
10.96
2.41
0.66
9.09
0.24
0
-3.75
0.48
-2.84
-0.06
0.21
-0.01
0.71

>  <PUBCHEM_SHAPE_SELFOVERLAP>
856.39

>  <PUBCHEM_SHAPE_VOLUME>
201.3

>  <PUBCHEM_COORDINATE_TYPE>
2
5
10

$$$$
5280445
 OpenBabel10062414423D

 31 33  0  0  0  0  0  0  0  0999 V2000
   -0.2476    0.6707   -0.1289 O   0  0  0  0  0  0  0  0  0  0  0  0
   -4.4428   -1.7292    0.2401 O   0  0  0  0  0  0  0  0  0  0  0  0
   -2.1088   -2.9245    0.3293 O   0  0  0  0  0  0  0  0  0  0  0  0
   -4.3876    2.9868   -0.3183 O   0  0  0  0  0  0  0  0  0  0  0  0
    4.4517    2.1826    0.8060 O   0  0  0  0  0  0  0  0  0  0  0  0
    6.0583    0.1621   -0.2227 O   0  0  0  0  0  0  0  0  0  0  0  0
   -2.3175   -0.5858    0.0623 C   0  0  0  0  0  0  0  0  0  0  0  0
   -1.6176    0.6095   -0.0931 C   0  0  0  0  0  0  0  0  0  0  0  0
    0.4699   -0.5085    0.0031 C   0  0  0  0  0  0  0  0  0  0  0  0
    1.9345   -0.3294   -0.0553 C   0  0  0  0  0  0  0  0  0  0  0  0
   -1.5600   -1.8398    0.1934 C   0  0  0  0  0  0  0  0  0  0  0  0
   -0.0884   -1.7204    0.1511 C   0  0  0  0  0  0  0  0  0  0  0  0
   -3.7139   -0.5884    0.0910 C   0  0  0  0  0  0  0  0  0  0  0  0
   -2.3122    1.8125   -0.2214 C   0  0  0  0  0  0  0  0  0  0  0  0
    2.5158    0.8539    0.4072 C   0  0  0  0  0  0  0  0  0  0  0  0
   -3.7071    1.8143   -0.1930 C   0  0  0  0  0  0  0  0  0  0  0  0
   -4.4062    0.6165   -0.0371 C   0  0  0  0  0  0  0  0  0  0  0  0
    2.7454   -1.3423   -0.5731 C   0  0  0  0  0  0  0  0  0  0  0  0
    3.8994    1.0230    0.3525 C   0  0  0  0  0  0  0  0  0  0  0  0
    4.1289   -1.1731   -0.6281 C   0  0  0  0  0  0  0  0  0  0  0  0
    4.7059    0.0095   -0.1652 C   0  0  0  0  0  0  0  0  0  0  0  0
    0.4747   -2.6391    0.2664 H   0  0  0  0  0  0  0  0  0  0  0  0
   -1.7701    2.7469   -0.3431 H   0  0  0  0  0  0  0  0  0  0  0  0
    1.9060    1.6535    0.8221 H   0  0  0  0  0  0  0  0  0  0  0  0
   -5.4935    0.6166   -0.0151 H   0  0  0  0  0  0  0  0  0  0  0  0
    2.3332   -2.2689   -0.9635 H   0  0  0  0  0  0  0  0  0  0  0  0
    4.7454   -1.9687   -1.0379 H   0  0  0  0  0  0  0  0  0  0  0  0
   -3.8582   -2.4983    0.3215 H   0  0  0  0  0  0  0  0  0  0  0  0
   -5.3420    2.8036   -0.2772 H   0  0  0  0  0  0  0  0  0  0  0  0
    5.4164    2.1272    0.6919 H   0  0  0  0  0  0  0  0  0  0  0  0
    6.4514   -0.6393   -0.6089 H   0  0  0  0  0  0  0  0  0  0  0  0
  1  8  1  0  0  0  0
  1  9  1  0  0  0  0
  2 13  1  0  0  0  0
  2 28  1  0  0  0  0
  3 11  2  0  0  0  0
  4 16  1  0  0  0  0
  4 29  1  0  0  0  0
  5 19  1  0  0  0  0
  5 30  1  0  0  0  0
  6 21  1  0  0  0  0
  6 31  1  0  0  0  0
  7  8  1  0  0  0  0
  7 11  1  0  0  0  0
  7 13  2  0  0  0  0
  8 14  2  0  0  0  0
  9 10  1  0  0  0  0
  9 12  2  0  0  0  0
 10 15  2  0  0  0  0
 10 18  1  0  0  0  0
 11 12  1  0  0  0  0
 12 22  1  0  0  0  0
 13 17  1  0  0  0  0
 14 16  1  0  0  0  0
 14 23  1  0  0  0  0
 15 19  1  0  0  0  0
 15 24  1  0  0  0  0
 16 17  2  0  0  0  0
 17 25  1  0  0  0  0
 18 20  2  0  0  0  0
 18 26  1  0  0  0  0
 19 21  2  0  0  0  0
 20 21  1  0  0  0  0
 20 27  1  0  0  0  0
M  END
>  <PUBCHEM_COMPOUND_CID>
5280445

>  <PUBCHEM_CONFORMER_RMSD>
0.6

>  <PUBCHEM_CONFORMER_DIVERSEORDER>
1
4
5
2
3
6

>  <PUBCHEM_MMFF94_PARTIAL_CHARGES>
31
1 -0.16
10 0.03
11 0.47
12 -0.14
13 0.08
14 -0.15
15 -0.15
16 0.08
17 -0.15
18 -0.15
19 0.08
2 -0.53
20 -0.15
21 0.08
22 0.15
23 0.15
24 0.15
25 0.15
26 0.15
27 0.15
28 0.45
29 0.45
3 -0.57
30 0.45
31 0.45
4 -0.53
5 -0.53
6 -0.53
7 0.09
8 0.08
9 0.05

>  <PUBCHEM_EFFECTIVE_ROTOR_COUNT>
1

>  <PUBCHEM_PHARMACOPHORE_FEATURES>
9
1 1 acceptor
1 2 donor
1 3 acceptor
1 4 donor
1 5 donor
1 6 donor
6 1 7 8 9 11 12 rings
6 10 15 18 19 20 21 rings
6 7 8 13 14 16 17 rings

>  <PUBCHEM_HEAVY_ATOM_COUNT>
21

>  <PUBCHEM_ATOM_DEF_STEREO_COUNT>
0

>  <PUBCHEM_ATOM_UDEF_STEREO_COUNT>
0

>  <PUBCHEM_BOND_DEF_STEREO_COUNT>
0

>  <PUBCHEM_BOND_UDEF_STEREO_COUNT>
0

>  <PUBCHEM_ISOTOPIC_ATOM_COUNT>
0

>  <PUBCHEM_COMPONENT_COUNT>
1

>  <PUBCHEM_CACTVS_TAUTO_COUNT>
162

>  <PUBCHEM_CONFORMER_ID>
005092BD00000001

>  <PUBCHEM_MMFF94_ENERGY>
62.9346

>  <PUBCHEM_FEATURE_SELFOVERLAP>
45.705

>  <PUBCHEM_SHAPE_FINGERPRINT>
10319926 262 18338220631946148362
10411042 1 17904486551842160651
10498660 4 18335696096813156637
10608611 8 18413387661625185128
10646746 165 18409166601983931430
11405975 8 18339923710320751066
11595378 159 17313656071225698436
12107183 9 17901094227556776866
12173636 292 18336543829078635781
12236239 1 17313103068727426734
12390115 104 18269851834699772553
12403259 415 18272930548756273160
12500047 106 18410854352258877006
12507560 40 18341612650749926244
12596602 18 16226058820067470680
13140716 1 17974016347161718235
13544592 145 18269002998748492134
14790565 3 17980769238194816601
15042514 8 18191311683514006523
15196674 1 18410856542470469902
15375358 24 18342739611250122414
15961568 22 18042124435382929948
17844677 252 18410863187070122744
18186145 218 18200882772549100160
200 152 17203330009316151082
20510252 161 18413672413735737553
20645477 56 18408606941764507773
20645477 70 17346045480878436734
21033648 29 18271515455484303296
21065198 57 18411136957128497514
21236236 1 18412545410259708743
21267235 1 18336837479813279235
21279426 13 18268433421533848014
21421861 104 17605544454481744546
23227448 37 18340766034874809709
23402539 116 18411694387500220214
23402655 69 18202281360298908980
23557571 272 18341339963086334372
23559900 14 18199467671631752798
245318 6 16449267575173549788
283562 15 18409728470297067627
3004659 81 18262525776461660358
335352 9 18266458698850835406
350125 39 18409736175209888081
3545911 37 18413110563204298804
4028521 119 18341048532212037453
4214541 1 18410856551292578020
474 4 16879078636249294636
495365 180 17632282476792585922
5104073 3 18408886204790909266
633830 44 18198897024848699269
69090 78 18343018904135721727
77779 3 18412263926155006356
9709674 26 18342182167424000502

>  <PUBCHEM_SHAPE_MULTIPOLES>
396.95
11.3
2.56
0.69
7.23
0.13
0
3.79
-0.35
-2.36
0.14
0.24
0.02
1.15

>  <PUBCHEM_SHAPE_SELFOVERLAP>
890.446

>  <PUBCHEM_SHAPE_VOLUME>
208.7

>  <PUBCHEM_COORDINATE_TYPE>
2
5
10

$$$$
5280459
 OpenBabel10062414423D

 52 55  0  0  1  0  0  0  0  0999 V2000
   -1.2404   -2.2947    1.0038 O   0  0  0  0  0  0  0  0  0  0  0  0
   -0.8127   -0.6603   -0.6627 O   0  0  0  0  0  0  0  0  0  0  0  0
   -5.0244   -1.6449   -0.5647 O   0  0  0  0  0  0  0  0  0  0  0  0
   -3.6928   -4.1213   -1.0549 O   0  0  0  0  0  0  0  0  0  0  0  0
   -3.5978   -0.7901    1.6666 O   0  0  0  0  0  0  0  0  0  0  0  0
    2.0360    1.6010   -0.0630 O   0  0  0  0  0  0  0  0  0  0  0  0
    1.3605   -2.3907   -0.5264 O   0  0  0  0  0  0  0  0  0  0  0  0
    3.9149   -2.8634   -0.2296 O   0  0  0  0  0  0  0  0  0  0  0  0
    6.7011    0.9149    0.4824 O   0  0  0  0  0  0  0  0  0  0  0  0
   -2.5262    3.9040    1.9812 O   0  0  0  0  0  0  0  0  0  0  0  0
   -3.1674    5.1288   -0.4303 O   0  0  0  0  0  0  0  0  0  0  0  0
   -3.6058   -1.7853   -0.5424 C   0  0  2  0  0  0  0  0  0  0  0  0
   -3.2466   -3.1941   -0.0685 C   0  0  2  0  0  0  0  0  0  0  0  0
   -2.9920   -0.7259    0.3745 C   0  0  2  0  0  0  0  0  0  0  0  0
   -1.7286   -3.3141    0.1258 C   0  0  2  0  0  0  0  0  0  0  0  0
   -1.4928   -0.9601    0.5513 C   0  0  1  0  0  0  0  0  0  0  0  0
   -1.3348   -4.6557    0.7378 C   0  0  0  0  0  0  0  0  0  0  0  0
    0.4655   -0.2003   -0.4312 C   0  0  0  0  0  0  0  0  0  0  0  0
    0.7586    1.1023   -0.2643 C   0  0  0  0  0  0  0  0  0  0  0  0
    1.5661   -1.1929   -0.3831 C   0  0  0  0  0  0  0  0  0  0  0  0
    2.9176   -0.6588   -0.1556 C   0  0  0  0  0  0  0  0  0  0  0  0
    3.0821    0.7167   -0.0072 C   0  0  0  0  0  0  0  0  0  0  0  0
   -0.2703    2.1566   -0.3043 C   0  0  0  0  0  0  0  0  0  0  0  0
    4.0215   -1.5126   -0.0906 C   0  0  0  0  0  0  0  0  0  0  0  0
    4.3540    1.2481    0.2072 C   0  0  0  0  0  0  0  0  0  0  0  0
   -0.9226    2.5404    0.8678 C   0  0  0  0  0  0  0  0  0  0  0  0
   -0.5929    2.7716   -1.5145 C   0  0  0  0  0  0  0  0  0  0  0  0
    5.2926   -0.9786    0.1244 C   0  0  0  0  0  0  0  0  0  0  0  0
    5.4588    0.3989    0.2730 C   0  0  0  0  0  0  0  0  0  0  0  0
   -1.8964    3.5383    0.8299 C   0  0  0  0  0  0  0  0  0  0  0  0
   -1.5666    3.7694   -1.5524 C   0  0  0  0  0  0  0  0  0  0  0  0
   -2.2184    4.1528   -0.3802 C   0  0  0  0  0  0  0  0  0  0  0  0
   -3.2597   -1.6363   -1.5721 H   0  0  0  0  0  0  0  0  0  0  0  0
   -3.7785   -3.4242    0.8621 H   0  0  0  0  0  0  0  0  0  0  0  0
   -3.1981    0.2692   -0.0358 H   0  0  0  0  0  0  0  0  0  0  0  0
   -1.2177   -3.2329   -0.8419 H   0  0  0  0  0  0  0  0  0  0  0  0
   -1.1442   -0.3125    1.3655 H   0  0  0  0  0  0  0  0  0  0  0  0
   -1.7892   -4.7821    1.7267 H   0  0  0  0  0  0  0  0  0  0  0  0
   -1.6387   -5.4924    0.1020 H   0  0  0  0  0  0  0  0  0  0  0  0
   -0.2500   -4.7048    0.8821 H   0  0  0  0  0  0  0  0  0  0  0  0
   -5.3449   -1.7254    0.3499 H   0  0  0  0  0  0  0  0  0  0  0  0
   -3.2043   -3.9452   -1.8770 H   0  0  0  0  0  0  0  0  0  0  0  0
   -3.2327   -0.0624    2.1985 H   0  0  0  0  0  0  0  0  0  0  0  0
    4.4860    2.3210    0.3230 H   0  0  0  0  0  0  0  0  0  0  0  0
   -0.6686    2.0676    1.8141 H   0  0  0  0  0  0  0  0  0  0  0  0
   -0.0932    2.4836   -2.4363 H   0  0  0  0  0  0  0  0  0  0  0  0
    6.1586   -1.6345    0.1767 H   0  0  0  0  0  0  0  0  0  0  0  0
   -1.8130    4.2442   -2.4982 H   0  0  0  0  0  0  0  0  0  0  0  0
    4.7957   -3.2682   -0.1521 H   0  0  0  0  0  0  0  0  0  0  0  0
    7.3465    0.1875    0.4995 H   0  0  0  0  0  0  0  0  0  0  0  0
   -2.1778    3.3711    2.7164 H   0  0  0  0  0  0  0  0  0  0  0  0
   -3.5129    5.2658    0.4690 H   0  0  0  0  0  0  0  0  0  0  0  0
  1 15  1  0  0  0  0
  1 16  1  0  0  0  0
  2 16  1  0  0  0  0
  2 18  1  0  0  0  0
  3 12  1  0  0  0  0
  3 41  1  0  0  0  0
  4 13  1  0  0  0  0
  4 42  1  0  0  0  0
  5 14  1  0  0  0  0
  5 43  1  0  0  0  0
  6 19  1  0  0  0  0
  6 22  1  0  0  0  0
  7 20  2  0  0  0  0
  8 24  1  0  0  0  0
  8 49  1  0  0  0  0
  9 29  1  0  0  0  0
  9 50  1  0  0  0  0
 10 30  1  0  0  0  0
 10 51  1  0  0  0  0
 11 32  1  0  0  0  0
 11 52  1  0  0  0  0
 12 13  1  0  0  0  0
 12 14  1  0  0  0  0
 12 33  1  6  0  0  0
 13 15  1  0  0  0  0
 13 34  1  1  0  0  0
 14 16  1  0  0  0  0
 14 35  1  6  0  0  0
 15 17  1  0  0  0  0
 15 36  1  6  0  0  0
 16 37  1  1  0  0  0
 17 38  1  0  0  0  0
 17 39  1  0  0  0  0
 17 40  1  0  0  0  0
 18 19  2  0  0  0  0
 18 20  1  0  0  0  0
 19 23  1  0  0  0  0
 20 21  1  0  0  0  0
 21 22  1  0  0  0  0
 21 24  2  0  0  0  0
 22 25  2  0  0  0  0
 23 26  2  0  0  0  0
 23 27  1  0  0  0  0
 24 28  1  0  0  0  0
 25 29  1  0  0  0  0
 25 44  1  0  0  0  0
 26 30  1  0  0  0  0
 26 45  1  0  0  0  0
 27 31  2  0  0  0  0
 27 46  1  0  0  0  0
 28 29  2  0  0  0  0
 28 47  1  0  0  0  0
 30 32  2  0  0  0  0
 31 32  1  0  0  0  0
 31 48  1  0  0  0  0
M  END
>  <PUBCHEM_COMPOUND_CID>
5280459

>  <PUBCHEM_CONFORMER_RMSD>
0.8

>  <PUBCHEM_CONFORMER_DIVERSEORDER>
1
38
42
26
37
45
22
33
16
40
44
31
23
13
43
39
19
35
21
27
32
41
8
15
17
7
29
36
25
18
30
34
12
28
20
14
6
10
24
11
9
3
5
2
4

>  <PUBCHEM_MMFF94_PARTIAL_CHARGES>
43
1 -0.56
10 -0.53
11 -0.53
12 0.28
13 0.28
14 0.28
15 0.28
16 0.56
18 0.09
19 0.05
2 -0.36
20 0.47
21 0.09
22 0.08
23 0.03
24 0.08
25 -0.15
26 -0.15
27 -0.15
28 -0.15
29 0.08
3 -0.68
30 0.08
31 -0.15
32 0.08
4 -0.68
41 0.4
42 0.4
43 0.4
44 0.15
45 0.15
46 0.15
47 0.15
48 0.15
49 0.45
5 -0.68
50 0.45
51 0.45
52 0.45
6 -0.16
7 -0.57
8 -0.53
9 -0.53

>  <PUBCHEM_EFFECTIVE_ROTOR_COUNT>
4.2

>  <PUBCHEM_PHARMACOPHORE_FEATURES>
18
1 1 acceptor
1 10 donor
1 11 donor
1 2 acceptor
1 3 acceptor
1 3 donor
1 4 acceptor
1 4 donor
1 5 acceptor
1 5 donor
1 6 acceptor
1 7 acceptor
1 8 donor
1 9 donor
6 1 12 13 14 15 16 rings
6 21 22 24 25 28 29 rings
6 23 26 27 30 31 32 rings
6 6 18 19 20 21 22 rings

>  <PUBCHEM_HEAVY_ATOM_COUNT>
32

>  <PUBCHEM_ATOM_DEF_STEREO_COUNT>
5

>  <PUBCHEM_ATOM_UDEF_STEREO_COUNT>
0

>  <PUBCHEM_BOND_DEF_STEREO_COUNT>
0

>  <PUBCHEM_BOND_UDEF_STEREO_COUNT>
0

>  <PUBCHEM_ISOTOPIC_ATOM_COUNT>
0

>  <PUBCHEM_COMPONENT_COUNT>
1

>  <PUBCHEM_CACTVS_TAUTO_COUNT>
162

>  <PUBCHEM_CONFORMER_ID>
005092CB00000001

>  <PUBCHEM_MMFF94_ENERGY>
100.1258

>  <PUBCHEM_FEATURE_SELFOVERLAP>
91.446

>  <PUBCHEM_SHAPE_FINGERPRINT>
10050765 1 18338514137453353886
10930396 42 17834921495013624936
11045515 52 18337386170896887751
11552529 35 18342459210136854040
11578080 2 17344878937036461673
12160290 23 18121814688199162233
12422481 6 17904801836758786681
12553582 1 18192735515989161663
12788726 201 18334284384028062954
13004483 165 18410284847979835059
13140716 1 18122623031757529674
13540713 4 18201999894761478478
13692114 37 18052233134607691053
138480 1 16176504539551624621
14028597 1 17604970638033886482
140371 6 18335144240886387500
14790565 3 17906170650871989541
14866123 147 18194120711646040594
15131766 46 15265351838648664192
15230672 131 17902241006007312766
15927050 60 17834674894528116487
17138139 8 17695864949294377925
17980427 23 17702679898435392507
18681886 176 17981035637698966778
20600515 1 18267602370926017335
20642791 13 18410573959492475940
21641784 216 18187942706660905092
21796203 349 17323553011995790154
23558518 356 18261396603119188294
23559900 14 17689426514028669667
255183 313 18269008505060330009
283562 15 18409161082972191483
3027735 51 18268142072501144119
3380486 145 18336837510352830163
350125 39 18411702114980543232
3886686 26 17832385793635389018
4015057 19 17904190783066433399
4409770 3 18334282163693747861
463206 1 18047192126865625242
508180 173 18118096265419664311
5104073 3 18338504241911767904
57527452 28 16199865198083598263
6004065 56 17836070539739965638
653340 110 18410849928653370466
6669772 16 17476922350765213046
9777508 108 18339073775164258680

>  <PUBCHEM_SHAPE_MULTIPOLES>
593.98
9.71
6.8
1.12
13.83
2.73
0.14
-3.25
0.78
-9.86
-0.2
-0.96
0.72
-0.17

>  <PUBCHEM_SHAPE_SELFOVERLAP>
1310.348

>  <PUBCHEM_SHAPE_VOLUME>
315.5

>  <PUBCHEM_COORDINATE_TYPE>
2
5
10

$$$$
5280489
 OpenBabel10062414423D

 96 97  0  0  0  0  0  0  0  0999 V2000
  -12.8901   -0.8145   -0.5076 C   0  0  0  0  0  0  0  0  0  0  0  0
   12.8997    0.4410    0.6411 C   0  0  0  0  0  0  0  0  0  0  0  0
  -14.2559   -0.0801   -0.4187 C   0  0  0  0  0  0  0  0  0  0  0  0
   13.9687   -0.5754    1.1283 C   0  0  0  0  0  0  0  0  0  0  0  0
  -14.1325    1.4021   -0.7232 C   0  0  0  0  0  0  0  0  0  0  0  0
   14.2584   -1.6458    0.0914 C   0  0  0  0  0  0  0  0  0  0  0  0
  -11.7656   -0.0110    0.1873 C   0  0  0  0  0  0  0  0  0  0  0  0
   11.7051   -0.2704   -0.0369 C   0  0  0  0  0  0  0  0  0  0  0  0
  -13.1937    2.0628    0.2749 C   0  0  0  0  0  0  0  0  0  0  0  0
   12.9914   -2.4292   -0.2171 C   0  0  0  0  0  0  0  0  0  0  0  0
  -11.9254    1.2838    0.5600 C   0  0  0  0  0  0  0  0  0  0  0  0
   11.7507   -1.5779   -0.3966 C   0  0  0  0  0  0  0  0  0  0  0  0
  -12.5294   -1.0270   -1.9959 C   0  0  0  0  0  0  0  0  0  0  0  0
  -13.1074   -2.1999    0.1487 C   0  0  0  0  0  0  0  0  0  0  0  0
   13.5556    1.4186   -0.3613 C   0  0  0  0  0  0  0  0  0  0  0  0
   12.4673    1.2391    1.8955 C   0  0  0  0  0  0  0  0  0  0  0  0
  -10.5162   -0.7258    0.3915 C   0  0  0  0  0  0  0  0  0  0  0  0
   10.5386    0.5604   -0.2876 C   0  0  0  0  0  0  0  0  0  0  0  0
  -10.9033    2.1251    1.2890 C   0  0  0  0  0  0  0  0  0  0  0  0
   10.6162   -2.3640   -1.0125 C   0  0  0  0  0  0  0  0  0  0  0  0
   -9.3101   -0.1674    0.2000 C   0  0  0  0  0  0  0  0  0  0  0  0
    9.2794    0.1212   -0.1333 C   0  0  0  0  0  0  0  0  0  0  0  0
   -8.0143   -0.8203    0.3882 C   0  0  0  0  0  0  0  0  0  0  0  0
    8.0576    0.8903   -0.3702 C   0  0  0  0  0  0  0  0  0  0  0  0
   -8.0214   -2.2597    0.8498 C   0  0  0  0  0  0  0  0  0  0  0  0
    8.2067    2.3079   -0.8682 C   0  0  0  0  0  0  0  0  0  0  0  0
   -6.8238   -0.2163    0.1826 C   0  0  0  0  0  0  0  0  0  0  0  0
    6.8152    0.3903   -0.1964 C   0  0  0  0  0  0  0  0  0  0  0  0
   -5.4906   -0.7696    0.3389 C   0  0  0  0  0  0  0  0  0  0  0  0
    5.5378    1.0456   -0.3959 C   0  0  0  0  0  0  0  0  0  0  0  0
   -4.3789   -0.0528    0.0989 C   0  0  0  0  0  0  0  0  0  0  0  0
    4.3476    0.4561   -0.1936 C   0  0  0  0  0  0  0  0  0  0  0  0
   -2.9988   -0.5222    0.2249 C   0  0  0  0  0  0  0  0  0  0  0  0
    3.0244    1.0661   -0.3595 C   0  0  0  0  0  0  0  0  0  0  0  0
   -2.7772   -1.9381    0.6986 C   0  0  0  0  0  0  0  0  0  0  0  0
    2.9783    2.4996   -0.8248 C   0  0  0  0  0  0  0  0  0  0  0  0
   -1.9244    0.2540   -0.0330 C   0  0  0  0  0  0  0  0  0  0  0  0
    1.9379    0.3050   -0.1059 C   0  0  0  0  0  0  0  0  0  0  0  0
   -0.5200   -0.0913    0.0540 C   0  0  0  0  0  0  0  0  0  0  0  0
    0.5427    0.6895   -0.2053 C   0  0  0  0  0  0  0  0  0  0  0  0
  -14.9809   -0.5336   -1.1065 H   0  0  0  0  0  0  0  0  0  0  0  0
  -14.6780   -0.1942    0.5896 H   0  0  0  0  0  0  0  0  0  0  0  0
   14.9007   -0.0578    1.3881 H   0  0  0  0  0  0  0  0  0  0  0  0
   13.6261   -1.0679    2.0491 H   0  0  0  0  0  0  0  0  0  0  0  0
  -15.1180    1.8792   -0.6708 H   0  0  0  0  0  0  0  0  0  0  0  0
  -13.7657    1.5561   -1.7445 H   0  0  0  0  0  0  0  0  0  0  0  0
   15.0309   -2.3289    0.4631 H   0  0  0  0  0  0  0  0  0  0  0  0
   14.6555   -1.1947   -0.8253 H   0  0  0  0  0  0  0  0  0  0  0  0
  -12.9377    3.0589   -0.1072 H   0  0  0  0  0  0  0  0  0  0  0  0
  -13.7245    2.2123    1.2241 H   0  0  0  0  0  0  0  0  0  0  0  0
   13.1799   -3.0184   -1.1229 H   0  0  0  0  0  0  0  0  0  0  0  0
   12.7999   -3.1441    0.5935 H   0  0  0  0  0  0  0  0  0  0  0  0
  -13.3418   -1.5315   -2.5315 H   0  0  0  0  0  0  0  0  0  0  0  0
  -11.6340   -1.6498   -2.1064 H   0  0  0  0  0  0  0  0  0  0  0  0
  -12.3301   -0.0788   -2.5070 H   0  0  0  0  0  0  0  0  0  0  0  0
  -12.2784   -2.8883   -0.0477 H   0  0  0  0  0  0  0  0  0  0  0  0
  -14.0093   -2.6823   -0.2474 H   0  0  0  0  0  0  0  0  0  0  0  0
  -13.2289   -2.1122    1.2346 H   0  0  0  0  0  0  0  0  0  0  0  0
   12.8973    2.2601   -0.6035 H   0  0  0  0  0  0  0  0  0  0  0  0
   13.8132    0.9231   -1.3038 H   0  0  0  0  0  0  0  0  0  0  0  0
   14.4766    1.8465    0.0515 H   0  0  0  0  0  0  0  0  0  0  0  0
   13.3367    1.6674    2.4081 H   0  0  0  0  0  0  0  0  0  0  0  0
   11.9395    0.5977    2.6110 H   0  0  0  0  0  0  0  0  0  0  0  0
   11.8023    2.0723    1.6424 H   0  0  0  0  0  0  0  0  0  0  0  0
  -10.5940   -1.7437    0.7546 H   0  0  0  0  0  0  0  0  0  0  0  0
   10.7350    1.5667   -0.6416 H   0  0  0  0  0  0  0  0  0  0  0  0
  -11.4085    2.7969    1.9939 H   0  0  0  0  0  0  0  0  0  0  0  0
  -10.3430    2.7487    0.5854 H   0  0  0  0  0  0  0  0  0  0  0  0
  -10.2131    1.5415    1.9032 H   0  0  0  0  0  0  0  0  0  0  0  0
   10.0172   -2.8518   -0.2374 H   0  0  0  0  0  0  0  0  0  0  0  0
   11.0083   -3.1587   -1.6589 H   0  0  0  0  0  0  0  0  0  0  0  0
    9.9808   -1.7688   -1.6729 H   0  0  0  0  0  0  0  0  0  0  0  0
   -9.2338    0.8426   -0.1967 H   0  0  0  0  0  0  0  0  0  0  0  0
    9.0889   -0.8649    0.2815 H   0  0  0  0  0  0  0  0  0  0  0  0
   -7.0523   -2.7392    0.9778 H   0  0  0  0  0  0  0  0  0  0  0  0
   -8.5673   -2.8803    0.1289 H   0  0  0  0  0  0  0  0  0  0  0  0
   -8.5251   -2.3381    1.8208 H   0  0  0  0  0  0  0  0  0  0  0  0
    8.7409    2.9103   -0.1238 H   0  0  0  0  0  0  0  0  0  0  0  0
    7.2876    2.8471   -1.0927 H   0  0  0  0  0  0  0  0  0  0  0  0
    8.7877    2.3189   -1.7983 H   0  0  0  0  0  0  0  0  0  0  0  0
   -6.8440    0.8237   -0.1458 H   0  0  0  0  0  0  0  0  0  0  0  0
    6.7362   -0.6420    0.1473 H   0  0  0  0  0  0  0  0  0  0  0  0
   -5.3867   -1.7974    0.6561 H   0  0  0  0  0  0  0  0  0  0  0  0
    5.5437    2.0792   -0.7140 H   0  0  0  0  0  0  0  0  0  0  0  0
   -4.4832    0.9825   -0.2248 H   0  0  0  0  0  0  0  0  0  0  0  0
    4.3471   -0.5839    0.1336 H   0  0  0  0  0  0  0  0  0  0  0  0
   -3.2750   -2.0922    1.6638 H   0  0  0  0  0  0  0  0  0  0  0  0
   -3.2048   -2.6440   -0.0234 H   0  0  0  0  0  0  0  0  0  0  0  0
   -1.7457   -2.2497    0.8542 H   0  0  0  0  0  0  0  0  0  0  0  0
    3.4831    3.1529   -0.1041 H   0  0  0  0  0  0  0  0  0  0  0  0
    1.9677    2.8941   -0.9455 H   0  0  0  0  0  0  0  0  0  0  0  0
    3.4696    2.6034   -1.7990 H   0  0  0  0  0  0  0  0  0  0  0  0
   -2.1061    1.2785   -0.3592 H   0  0  0  0  0  0  0  0  0  0  0  0
    2.0859   -0.7259    0.2177 H   0  0  0  0  0  0  0  0  0  0  0  0
   -0.2764   -1.1040    0.3568 H   0  0  0  0  0  0  0  0  0  0  0  0
    0.3341    1.7091   -0.5157 H   0  0  0  0  0  0  0  0  0  0  0  0
  1  3  1  0  0  0  0
  1  7  1  0  0  0  0
  1 13  1  0  0  0  0
  1 14  1  0  0  0  0
  2  4  1  0  0  0  0
  2  8  1  0  0  0  0
  2 15  1  0  0  0  0
  2 16  1  0  0  0  0
  3  5  1  0  0  0  0
  3 41  1  0  0  0  0
  3 42  1  0  0  0  0
  4  6  1  0  0  0  0
  4 43  1  0  0  0  0
  4 44  1  0  0  0  0
  5  9  1  0  0  0  0
  5 45  1  0  0  0  0
  5 46  1  0  0  0  0
  6 10  1  0  0  0  0
  6 47  1  0  0  0  0
  6 48  1  0  0  0  0
  7 11  2  0  0  0  0
  7 17  1  0  0  0  0
  8 12  2  0  0  0  0
  8 18  1  0  0  0  0
  9 11  1  0  0  0  0
  9 49  1  0  0  0  0
  9 50  1  0  0  0  0
 10 12  1  0  0  0  0
 10 51  1  0  0  0  0
 10 52  1  0  0  0  0
 11 19  1  0  0  0  0
 12 20  1  0  0  0  0
 13 53  1  0  0  0  0
 13 54  1  0  0  0  0
 13 55  1  0  0  0  0
 14 56  1  0  0  0  0
 14 57  1  0  0  0  0
 14 58  1  0  0  0  0
 15 59  1  0  0  0  0
 15 60  1  0  0  0  0
 15 61  1  0  0  0  0
 16 62  1  0  0  0  0
 16 63  1  0  0  0  0
 16 64  1  0  0  0  0
 17 21  2  0  0  0  0
 17 65  1  0  0  0  0
 18 22  2  0  0  0  0
 18 66  1  0  0  0  0
 19 67  1  0  0  0  0
 19 68  1  0  0  0  0
 19 69  1  0  0  0  0
 20 70  1  0  0  0  0
 20 71  1  0  0  0  0
 20 72  1  0  0  0  0
 21 23  1  0  0  0  0
 21 73  1  0  0  0  0
 22 24  1  0  0  0  0
 22 74  1  0  0  0  0
 23 25  1  0  0  0  0
 23 27  2  0  0  0  0
 24 26  1  0  0  0  0
 24 28  2  0  0  0  0
 25 75  1  0  0  0  0
 25 76  1  0  0  0  0
 25 77  1  0  0  0  0
 26 78  1  0  0  0  0
 26 79  1  0  0  0  0
 26 80  1  0  0  0  0
 27 29  1  0  0  0  0
 27 81  1  0  0  0  0
 28 30  1  0  0  0  0
 28 82  1  0  0  0  0
 29 31  2  0  0  0  0
 29 83  1  0  0  0  0
 30 32  2  0  0  0  0
 30 84  1  0  0  0  0
 31 33  1  0  0  0  0
 31 85  1  0  0  0  0
 32 34  1  0  0  0  0
 32 86  1  0  0  0  0
 33 35  1  0  0  0  0
 33 37  2  0  0  0  0
 34 36  1  0  0  0  0
 34 38  2  0  0  0  0
 35 87  1  0  0  0  0
 35 88  1  0  0  0  0
 35 89  1  0  0  0  0
 36 90  1  0  0  0  0
 36 91  1  0  0  0  0
 36 92  1  0  0  0  0
 37 39  1  0  0  0  0
 37 93  1  0  0  0  0
 38 40  1  0  0  0  0
 38 94  1  0  0  0  0
 39 40  2  0  0  0  0
 39 95  1  0  0  0  0
 40 96  1  0  0  0  0
M  END
>  <PUBCHEM_COMPOUND_CID>
5280489

>  <PUBCHEM_CONFORMER_RMSD>
1.2

>  <PUBCHEM_CONFORMER_DIVERSEORDER>
1
28
7
40
17
35
41
14
3
16
36
15
19
4
45
46
9
18
34
43
20
21
27
32
48
38
44
37
11
30
6
47
12
29
24
25
42
2
33
39
23
26
5
10
31
22
8
13

>  <PUBCHEM_MMFF94_PARTIAL_CHARGES>
46
1 0.14
10 0.14
11 -0.28
12 -0.28
17 -0.15
18 -0.15
19 0.14
2 0.14
20 0.14
21 -0.15
22 -0.15
23 -0.14
24 -0.14
25 0.14
26 0.14
27 -0.15
28 -0.15
29 -0.15
30 -0.15
31 -0.15
32 -0.15
33 -0.14
34 -0.14
35 0.14
36 0.14
37 -0.15
38 -0.15
39 -0.15
40 -0.15
65 0.15
66 0.15
7 -0.14
73 0.15
74 0.15
8 -0.14
81 0.15
82 0.15
83 0.15
84 0.15
85 0.15
86 0.15
9 0.14
93 0.15
94 0.15
95 0.15
96 0.15

>  <PUBCHEM_EFFECTIVE_ROTOR_COUNT>
11.6

>  <PUBCHEM_PHARMACOPHORE_FEATURES>
8
1 25 hydrophobe
1 26 hydrophobe
1 35 hydrophobe
1 36 hydrophobe
3 1 13 14 hydrophobe
3 2 15 16 hydrophobe
6 1 3 5 7 9 11 rings
6 2 4 6 8 10 12 rings

>  <PUBCHEM_HEAVY_ATOM_COUNT>
40

>  <PUBCHEM_ATOM_DEF_STEREO_COUNT>
0

>  <PUBCHEM_ATOM_UDEF_STEREO_COUNT>
0

>  <PUBCHEM_BOND_DEF_STEREO_COUNT>
9

>  <PUBCHEM_BOND_UDEF_STEREO_COUNT>
0

>  <PUBCHEM_ISOTOPIC_ATOM_COUNT>
0

>  <PUBCHEM_COMPONENT_COUNT>
1

>  <PUBCHEM_CACTVS_TAUTO_COUNT>
1

>  <PUBCHEM_CONFORMER_ID>
005092E900000001

>  <PUBCHEM_MMFF94_ENERGY>
107.3745

>  <PUBCHEM_FEATURE_SELFOVERLAP>
40.601

>  <PUBCHEM_SHAPE_FINGERPRINT>
12013929 2 18335422383153138297
12559415 90 18060138726633780057
14251920 1 18335138695693295840
14251920 17 10375870775299229502
15061470 23 18343022207034222081
15274700 256 18131351904611325857
15343295 20 18201720666369187464
15343295 29 18261108566355856085
16728433 110 18273214232005797408
20580484 106 18131350804988421065
21057603 130 12103842355572574833
22082593 10 17418377991599697928
23581129 1 18409448098129516901
3092352 35 18409730695396029903
3991529 128 11025796500682120577
54131252 152 17989205976584578239
57828716 42 11167938066256400645
9663363 56 16702023084157593288

>  <PUBCHEM_SHAPE_MULTIPOLES>
823.18
96.17
2.28
1.06
3.29
0.23
0.02
10.93
1.86
-0.93
-0.09
0.07
-0.07
-0.22

>  <PUBCHEM_SHAPE_SELFOVERLAP>
1665.583

>  <PUBCHEM_SHAPE_VOLUME>
477.9

>  <PUBCHEM_COORDINATE_TYPE>
2
5
10

$$$$
5280794
 OpenBabel10062414423D

 78 81  0  0  1  0  0  0  0  0999 V2000
    8.4148   -0.1504    0.4018 O   0  0  0  0  0  0  0  0  0  0  0  0
   -0.2767    0.5414   -0.2403 C   0  0  1  0  0  0  0  0  0  0  0  0
    0.4461   -0.7299    0.2476 C   0  0  2  0  0  0  0  0  0  0  0  0
    1.8956   -0.8270   -0.2388 C   0  0  1  0  0  0  0  0  0  0  0  0
    2.6888    0.4243    0.2388 C   0  0  1  0  0  0  0  0  0  0  0  0
   -1.6769    0.2787    0.3661 C   0  0  2  0  0  0  0  0  0  0  0  0
    0.4640    1.7488    0.3513 C   0  0  0  0  0  0  0  0  0  0  0  0
    4.1851    0.3905   -0.2718 C   0  0  2  0  0  0  0  0  0  0  0  0
   -0.5234   -1.8550   -0.1014 C   0  0  0  0  0  0  0  0  0  0  0  0
    1.9466    1.7562   -0.0596 C   0  0  0  0  0  0  0  0  0  0  0  0
   -1.9149   -1.2262    0.0989 C   0  0  0  0  0  0  0  0  0  0  0  0
    2.5613   -2.1074    0.2872 C   0  0  0  0  0  0  0  0  0  0  0  0
   -0.3513    0.6718   -1.7820 C   0  0  0  0  0  0  0  0  0  0  0  0
    4.7932   -1.0072   -0.0881 C   0  0  0  0  0  0  0  0  0  0  0  0
   -2.8130    1.1566   -0.1383 C   0  0  2  0  0  0  0  0  0  0  0  0
    5.0083    1.4181    0.5612 C   0  0  0  0  0  0  0  0  0  0  0  0
    4.0520   -2.0978    0.1734 C   0  0  0  0  0  0  0  0  0  0  0  0
    4.2760    0.7575   -1.7726 C   0  0  0  0  0  0  0  0  0  0  0  0
    6.2952   -1.1270   -0.2049 C   0  0  0  0  0  0  0  0  0  0  0  0
    6.5212    1.3121    0.3749 C   0  0  0  0  0  0  0  0  0  0  0  0
    7.0161   -0.1004    0.6646 C   0  0  2  0  0  0  0  0  0  0  0  0
   -2.5262    2.6326    0.1468 C   0  0  0  0  0  0  0  0  0  0  0  0
   -4.1168    0.7503    0.5049 C   0  0  0  0  0  0  0  0  0  0  0  0
   -5.1831    0.3108   -0.1815 C   0  0  0  0  0  0  0  0  0  0  0  0
   -6.4932   -0.0911    0.4649 C   0  0  2  0  0  0  0  0  0  0  0  0
   -6.8477   -1.5890    0.2288 C   0  0  0  0  0  0  0  0  0  0  0  0
   -7.5883    0.8917   -0.0059 C   0  0  0  0  0  0  0  0  0  0  0  0
   -5.8231   -2.5747    0.7998 C   0  0  0  0  0  0  0  0  0  0  0  0
   -7.0747   -1.8885   -1.2597 C   0  0  0  0  0  0  0  0  0  0  0  0
   -7.3551    2.3304    0.4338 C   0  0  0  0  0  0  0  0  0  0  0  0
    0.4886   -0.6981    1.3497 H   0  0  0  0  0  0  0  0  0  0  0  0
    1.9085   -0.8733   -1.3335 H   0  0  0  0  0  0  0  0  0  0  0  0
    2.7252    0.3534    1.3383 H   0  0  0  0  0  0  0  0  0  0  0  0
   -1.6054    0.4005    1.4590 H   0  0  0  0  0  0  0  0  0  0  0  0
    0.4026    1.7337    1.4470 H   0  0  0  0  0  0  0  0  0  0  0  0
    0.0440    2.7016    0.0273 H   0  0  0  0  0  0  0  0  0  0  0  0
   -0.3854   -2.7295    0.5426 H   0  0  0  0  0  0  0  0  0  0  0  0
   -0.3989   -2.1845   -1.1390 H   0  0  0  0  0  0  0  0  0  0  0  0
    2.0058    1.9984   -1.1247 H   0  0  0  0  0  0  0  0  0  0  0  0
    2.4400    2.5794    0.4694 H   0  0  0  0  0  0  0  0  0  0  0  0
   -2.5247   -1.4011   -0.7949 H   0  0  0  0  0  0  0  0  0  0  0  0
   -2.4303   -1.6918    0.9464 H   0  0  0  0  0  0  0  0  0  0  0  0
    2.1716   -2.9679   -0.2700 H   0  0  0  0  0  0  0  0  0  0  0  0
    2.3057   -2.2711    1.3416 H   0  0  0  0  0  0  0  0  0  0  0  0
    0.6337    0.6359   -2.2550 H   0  0  0  0  0  0  0  0  0  0  0  0
   -0.9464   -0.1247   -2.2401 H   0  0  0  0  0  0  0  0  0  0  0  0
   -0.8005    1.6246   -2.0801 H   0  0  0  0  0  0  0  0  0  0  0  0
   -2.9224    1.0446   -1.2243 H   0  0  0  0  0  0  0  0  0  0  0  0
    4.7913    1.2822    1.6296 H   0  0  0  0  0  0  0  0  0  0  0  0
    4.7041    2.4419    0.3129 H   0  0  0  0  0  0  0  0  0  0  0  0
    4.5424   -3.0580    0.3146 H   0  0  0  0  0  0  0  0  0  0  0  0
    5.2904    0.6416   -2.1691 H   0  0  0  0  0  0  0  0  0  0  0  0
    3.6243    0.1266   -2.3857 H   0  0  0  0  0  0  0  0  0  0  0  0
    3.9988    1.8014   -1.9514 H   0  0  0  0  0  0  0  0  0  0  0  0
    6.6449   -2.1298    0.0727 H   0  0  0  0  0  0  0  0  0  0  0  0
    6.5917   -1.0072   -1.2546 H   0  0  0  0  0  0  0  0  0  0  0  0
    6.8052    1.6164   -0.6401 H   0  0  0  0  0  0  0  0  0  0  0  0
    7.0273    2.0212    1.0417 H   0  0  0  0  0  0  0  0  0  0  0  0
    6.8704   -0.3369    1.7251 H   0  0  0  0  0  0  0  0  0  0  0  0
   -1.8619    3.0656   -0.6040 H   0  0  0  0  0  0  0  0  0  0  0  0
   -3.4498    3.2227    0.0899 H   0  0  0  0  0  0  0  0  0  0  0  0
   -2.1089    2.7903    1.1469 H   0  0  0  0  0  0  0  0  0  0  0  0
   -4.1756    0.8230    1.5887 H   0  0  0  0  0  0  0  0  0  0  0  0
   -5.1220    0.2519   -1.2653 H   0  0  0  0  0  0  0  0  0  0  0  0
    8.5522    0.0499   -0.5398 H   0  0  0  0  0  0  0  0  0  0  0  0
   -6.4010    0.0324    1.5538 H   0  0  0  0  0  0  0  0  0  0  0  0
   -7.7971   -1.7812    0.7470 H   0  0  0  0  0  0  0  0  0  0  0  0
   -7.6816    0.8800   -1.0984 H   0  0  0  0  0  0  0  0  0  0  0  0
   -8.5544    0.5631    0.3969 H   0  0  0  0  0  0  0  0  0  0  0  0
   -5.6413   -2.3719    1.8602 H   0  0  0  0  0  0  0  0  0  0  0  0
   -4.8666   -2.5152    0.2713 H   0  0  0  0  0  0  0  0  0  0  0  0
   -6.1878   -3.6040    0.7139 H   0  0  0  0  0  0  0  0  0  0  0  0
   -6.1683   -1.7403   -1.8546 H   0  0  0  0  0  0  0  0  0  0  0  0
   -7.8735   -1.2728   -1.6823 H   0  0  0  0  0  0  0  0  0  0  0  0
   -7.3795   -2.9333   -1.3903 H   0  0  0  0  0  0  0  0  0  0  0  0
   -7.2343    2.3946    1.5199 H   0  0  0  0  0  0  0  0  0  0  0  0
   -6.4686    2.7622   -0.0401 H   0  0  0  0  0  0  0  0  0  0  0  0
   -8.2128    2.9506    0.1534 H   0  0  0  0  0  0  0  0  0  0  0  0
  1 21  1  0  0  0  0
  1 65  1  0  0  0  0
  2  3  1  0  0  0  0
  2  6  1  0  0  0  0
  2  7  1  0  0  0  0
  2 13  1  6  0  0  0
  3  4  1  0  0  0  0
  3  9  1  0  0  0  0
  3 31  1  1  0  0  0
  4  5  1  0  0  0  0
  4 12  1  0  0  0  0
  4 32  1  6  0  0  0
  5  8  1  0  0  0  0
  5 10  1  0  0  0  0
  5 33  1  1  0  0  0
  6 11  1  0  0  0  0
  6 15  1  0  0  0  0
  6 34  1  1  0  0  0
  7 10  1  0  0  0  0
  7 35  1  0  0  0  0
  7 36  1  0  0  0  0
  8 14  1  0  0  0  0
  8 16  1  0  0  0  0
  8 18  1  6  0  0  0
  9 11  1  0  0  0  0
  9 37  1  0  0  0  0
  9 38  1  0  0  0  0
 10 39  1  0  0  0  0
 10 40  1  0  0  0  0
 11 41  1  0  0  0  0
 11 42  1  0  0  0  0
 12 17  1  0  0  0  0
 12 43  1  0  0  0  0
 12 44  1  0  0  0  0
 13 45  1  0  0  0  0
 13 46  1  0  0  0  0
 13 47  1  0  0  0  0
 14 17  2  0  0  0  0
 14 19  1  0  0  0  0
 15 22  1  0  0  0  0
 15 23  1  0  0  0  0
 15 48  1  6  0  0  0
 16 20  1  0  0  0  0
 16 49  1  0  0  0  0
 16 50  1  0  0  0  0
 17 51  1  0  0  0  0
 18 52  1  0  0  0  0
 18 53  1  0  0  0  0
 18 54  1  0  0  0  0
 19 21  1  0  0  0  0
 19 55  1  0  0  0  0
 19 56  1  0  0  0  0
 20 21  1  0  0  0  0
 20 57  1  0  0  0  0
 20 58  1  0  0  0  0
 21 59  1  1  0  0  0
 22 60  1  0  0  0  0
 22 61  1  0  0  0  0
 22 62  1  0  0  0  0
 23 24  2  0  0  0  0
 23 63  1  0  0  0  0
 24 25  1  0  0  0  0
 24 64  1  0  0  0  0
 25 26  1  0  0  0  0
 25 27  1  0  0  0  0
 25 66  1  1  0  0  0
 26 28  1  0  0  0  0
 26 29  1  0  0  0  0
 26 67  1  0  0  0  0
 27 30  1  0  0  0  0
 27 68  1  0  0  0  0
 27 69  1  0  0  0  0
 28 70  1  0  0  0  0
 28 71  1  0  0  0  0
 28 72  1  0  0  0  0
 29 73  1  0  0  0  0
 29 74  1  0  0  0  0
 29 75  1  0  0  0  0
 30 76  1  0  0  0  0
 30 77  1  0  0  0  0
 30 78  1  0  0  0  0
M  END
>  <PUBCHEM_COMPOUND_CID>
5280794

>  <PUBCHEM_CONFORMER_RMSD>
0.8

>  <PUBCHEM_CONFORMER_DIVERSEORDER>
1
13
16
24
14
20
9
6
2
18
22
21
4
5
23
17
12
15
7
19
11
3
8
10

>  <PUBCHEM_MMFF94_PARTIAL_CHARGES>
15
1 -0.68
12 0.14
14 -0.28
15 0.14
17 -0.29
19 0.14
21 0.28
23 -0.29
24 -0.29
25 0.14
51 0.15
63 0.15
64 0.15
65 0.4
8 0.14

>  <PUBCHEM_EFFECTIVE_ROTOR_COUNT>
7

>  <PUBCHEM_PHARMACOPHORE_FEATURES>
10
1 1 acceptor
1 1 donor
1 22 hydrophobe
1 30 hydrophobe
3 26 28 29 hydrophobe
4 24 25 26 27 hydrophobe
5 2 3 6 9 11 rings
6 2 3 4 5 7 10 rings
6 4 5 8 12 14 17 rings
6 8 14 16 19 20 21 rings

>  <PUBCHEM_HEAVY_ATOM_COUNT>
30

>  <PUBCHEM_ATOM_DEF_STEREO_COUNT>
9

>  <PUBCHEM_ATOM_UDEF_STEREO_COUNT>
0

>  <PUBCHEM_BOND_DEF_STEREO_COUNT>
1

>  <PUBCHEM_BOND_UDEF_STEREO_COUNT>
0

>  <PUBCHEM_ISOTOPIC_ATOM_COUNT>
0

>  <PUBCHEM_COMPONENT_COUNT>
1

>  <PUBCHEM_CACTVS_TAUTO_COUNT>
1

>  <PUBCHEM_CONFORMER_ID>
0050941A00000001

>  <PUBCHEM_MMFF94_ENERGY>
83.5092

>  <PUBCHEM_FEATURE_SELFOVERLAP>
51.118

>  <PUBCHEM_SHAPE_FINGERPRINT>
10 15 18261108595966985576
10050765 1 18122907521168389849
11135926 11 18113333099285906811
11578080 2 16700030872610390410
11724838 91 18335417980832979454
11963148 33 18335977631751332163
12166972 35 17894634772663406037
12236239 1 18273214197102233037
12516196 113 18413672409087563025
12838862 33 18338781365374664856
14251764 18 18410012160748558302
14394314 77 18411421675180401153
14849402 71 18130508651289530593
14856354 85 15267058177642162621
15183329 4 15791728616340732387
15849732 13 18202282506685873140
18608769 82 18411416241191761587
18681886 176 18342450474447148027
19315958 150 18057331592275757337
19841028 212 18188489056671508074
20028762 73 18272930531745845871
21130935 74 18343585114048643467
21267235 1 18412831257439416702
22149856 69 18271539614896473755
22224240 67 18334010610302247098
23522609 53 18195278613924339937
23559900 14 18409726297001404921
23569917 315 18335426755489017706
24771293 8 18259988205622527660
335352 9 18410014347799489718
34797466 226 17060342937962244284
350125 39 18411135844199023025
397830 11 16414334823690323315
4073 2 18187372051667776275
4325135 7 18409448076754946343
4340502 62 18409448081482566734
4625314 4 18341332206064265270
5104073 3 18264493879692423272
99344 41 18411418389039711571

>  <PUBCHEM_SHAPE_MULTIPOLES>
611.52
22.6
2.52
0.99
9.51
0.25
-0.39
1.69
2.2
2.57
0.24
-0.03
-0.03
-0.38

>  <PUBCHEM_SHAPE_SELFOVERLAP>
1265.898

>  <PUBCHEM_SHAPE_VOLUME>
349.8

>  <PUBCHEM_COORDINATE_TYPE>
2
5
10

$$$$
5280805
 OpenBabel10062414423D

 73 77  0  0  1  0  0  0  0  0999 V2000
    0.9151   -0.1224    1.7544 O   0  0  0  0  0  0  0  0  0  0  0  0
    0.8004    2.5595    1.0179 O   0  0  0  0  0  0  0  0  0  0  0  0
   -1.3404    3.5102    0.6376 O   0  0  0  0  0  0  0  0  0  0  0  0
    3.0158    2.1502    3.7129 O   0  0  0  0  0  0  0  0  0  0  0  0
    4.8927    0.1836    2.7303 O   0  0  0  0  0  0  0  0  0  0  0  0
    1.1682   -2.3514    1.1129 O   0  0  0  0  0  0  0  0  0  0  0  0
    3.6097   -2.4618    2.5396 O   0  0  0  0  0  0  0  0  0  0  0  0
   -0.0283    5.4197   -1.0632 O   0  0  0  0  0  0  0  0  0  0  0  0
    0.3419    3.6182   -3.1519 O   0  0  0  0  0  0  0  0  0  0  0  0
   -1.8002    1.8138   -2.6027 O   0  0  0  0  0  0  0  0  0  0  0  0
   -1.4889   -1.5897   -1.3258 O   0  0  0  0  0  0  0  0  0  0  0  0
   -1.1239   -2.2225    2.6830 O   0  0  0  0  0  0  0  0  0  0  0  0
   -3.6961   -1.8590    2.9805 O   0  0  0  0  0  0  0  0  0  0  0  0
   -6.1692   -0.8904   -0.9552 O   0  0  0  0  0  0  0  0  0  0  0  0
    3.2656    0.3677   -3.2321 O   0  0  0  0  0  0  0  0  0  0  0  0
    3.9451   -2.0203   -4.4801 O   0  0  0  0  0  0  0  0  0  0  0  0
    1.2160    0.9028    2.7027 C   0  0  1  0  0  0  0  0  0  0  0  0
    2.7199    1.1870    2.7050 C   0  0  2  0  0  0  0  0  0  0  0  0
    3.5131   -0.0910    2.9787 C   0  0  1  0  0  0  0  0  0  0  0  0
    3.0507   -1.2336    2.0745 C   0  0  2  0  0  0  0  0  0  0  0  0
    0.5277    4.1316   -0.7940 C   0  0  1  0  0  0  0  0  0  0  0  0
    0.0765    3.7131    0.6041 C   0  0  2  0  0  0  0  0  0  0  0  0
    0.0508    3.1278   -1.8451 C   0  0  1  0  0  0  0  0  0  0  0  0
   -1.4533    2.8807   -1.7234 C   0  0  2  0  0  0  0  0  0  0  0  0
    1.5279   -1.3673    2.0821 C   0  0  1  0  0  0  0  0  0  0  0  0
    0.4085    2.1380    2.3165 C   0  0  0  0  0  0  0  0  0  0  0  0
   -1.8123    2.5152   -0.2765 C   0  0  2  0  0  0  0  0  0  0  0  0
   -3.3207    2.4023   -0.0726 C   0  0  0  0  0  0  0  0  0  0  0  0
   -0.0704   -2.0952    0.5659 C   0  0  0  0  0  0  0  0  0  0  0  0
   -0.2634   -1.8822   -0.7485 C   0  0  0  0  0  0  0  0  0  0  0  0
   -1.2373   -2.0358    1.4789 C   0  0  0  0  0  0  0  0  0  0  0  0
   -2.5374   -1.7386    0.8583 C   0  0  0  0  0  0  0  0  0  0  0  0
    0.8392   -1.9149   -1.7260 C   0  0  0  0  0  0  0  0  0  0  0  0
   -2.5948   -1.5299   -0.5178 C   0  0  0  0  0  0  0  0  0  0  0  0
   -3.6980   -1.6637    1.6325 C   0  0  0  0  0  0  0  0  0  0  0  0
   -3.8155   -1.2441   -1.1299 C   0  0  0  0  0  0  0  0  0  0  0  0
    1.5428   -0.7476   -2.0237 C   0  0  0  0  0  0  0  0  0  0  0  0
    1.1798   -3.1132   -2.3539 C   0  0  0  0  0  0  0  0  0  0  0  0
   -4.9178   -1.3783    1.0179 C   0  0  0  0  0  0  0  0  0  0  0  0
   -4.9767   -1.1688   -0.3604 C   0  0  0  0  0  0  0  0  0  0  0  0
    2.5867   -0.7787   -2.9485 C   0  0  0  0  0  0  0  0  0  0  0  0
    2.2234   -3.1442   -3.2789 C   0  0  0  0  0  0  0  0  0  0  0  0
    2.9270   -1.9769   -3.5761 C   0  0  0  0  0  0  0  0  0  0  0  0
    0.8810    0.5830    3.6984 H   0  0  0  0  0  0  0  0  0  0  0  0
    3.0460    1.6070    1.7459 H   0  0  0  0  0  0  0  0  0  0  0  0
    3.4402   -0.3805    4.0342 H   0  0  0  0  0  0  0  0  0  0  0  0
    3.4206   -1.0834    1.0531 H   0  0  0  0  0  0  0  0  0  0  0  0
    1.6173    4.2301   -0.8482 H   0  0  0  0  0  0  0  0  0  0  0  0
    0.2912    4.5308    1.3033 H   0  0  0  0  0  0  0  0  0  0  0  0
    0.5944    2.1876   -1.7370 H   0  0  0  0  0  0  0  0  0  0  0  0
   -2.0034    3.7701   -2.0542 H   0  0  0  0  0  0  0  0  0  0  0  0
    1.1907   -1.7127    3.0677 H   0  0  0  0  0  0  0  0  0  0  0  0
   -0.6540    1.8703    2.3174 H   0  0  0  0  0  0  0  0  0  0  0  0
    0.5692    2.9467    3.0383 H   0  0  0  0  0  0  0  0  0  0  0  0
   -1.3741    1.5428   -0.0180 H   0  0  0  0  0  0  0  0  0  0  0  0
   -3.5426    2.1284    0.9648 H   0  0  0  0  0  0  0  0  0  0  0  0
   -3.7724    1.6575   -0.7298 H   0  0  0  0  0  0  0  0  0  0  0  0
   -3.8095    3.3663   -0.2526 H   0  0  0  0  0  0  0  0  0  0  0  0
    2.7336    1.7856    4.5691 H   0  0  0  0  0  0  0  0  0  0  0  0
    5.1515    0.9212    3.3091 H   0  0  0  0  0  0  0  0  0  0  0  0
    3.2966   -2.6111    3.4480 H   0  0  0  0  0  0  0  0  0  0  0  0
   -0.9806    5.3889   -0.8707 H   0  0  0  0  0  0  0  0  0  0  0  0
   -0.0954    4.4815   -3.2491 H   0  0  0  0  0  0  0  0  0  0  0  0
   -2.7697    1.7715   -2.6522 H   0  0  0  0  0  0  0  0  0  0  0  0
   -3.8634   -1.0785   -2.2033 H   0  0  0  0  0  0  0  0  0  0  0  0
    1.2956    0.1811   -1.5208 H   0  0  0  0  0  0  0  0  0  0  0  0
    0.6405   -4.0311   -2.1326 H   0  0  0  0  0  0  0  0  0  0  0  0
   -5.8271   -1.3175    1.6114 H   0  0  0  0  0  0  0  0  0  0  0  0
    2.4837   -4.0809   -3.7643 H   0  0  0  0  0  0  0  0  0  0  0  0
   -4.6008   -1.7621    3.3238 H   0  0  0  0  0  0  0  0  0  0  0  0
   -6.8651   -0.8754   -0.2759 H   0  0  0  0  0  0  0  0  0  0  0  0
    4.1417    0.1495   -3.5888 H   0  0  0  0  0  0  0  0  0  0  0  0
    4.1001   -1.1327   -4.8413 H   0  0  0  0  0  0  0  0  0  0  0  0
  1 17  1  0  0  0  0
  1 25  1  0  0  0  0
  2 22  1  0  0  0  0
  2 26  1  0  0  0  0
  3 22  1  0  0  0  0
  3 27  1  0  0  0  0
  4 18  1  0  0  0  0
  4 59  1  0  0  0  0
  5 19  1  0  0  0  0
  5 60  1  0  0  0  0
  6 25  1  0  0  0  0
  6 29  1  0  0  0  0
  7 20  1  0  0  0  0
  7 61  1  0  0  0  0
  8 21  1  0  0  0  0
  8 62  1  0  0  0  0
  9 23  1  0  0  0  0
  9 63  1  0  0  0  0
 10 24  1  0  0  0  0
 10 64  1  0  0  0  0
 11 30  1  0  0  0  0
 11 34  1  0  0  0  0
 12 31  2  0  0  0  0
 13 35  1  0  0  0  0
 13 70  1  0  0  0  0
 14 40  1  0  0  0  0
 14 71  1  0  0  0  0
 15 41  1  0  0  0  0
 15 72  1  0  0  0  0
 16 43  1  0  0  0  0
 16 73  1  0  0  0  0
 17 18  1  0  0  0  0
 17 26  1  0  0  0  0
 17 44  1  1  0  0  0
 18 19  1  0  0  0  0
 18 45  1  6  0  0  0
 19 20  1  0  0  0  0
 19 46  1  1  0  0  0
 20 25  1  0  0  0  0
 20 47  1  6  0  0  0
 21 22  1  0  0  0  0
 21 23  1  0  0  0  0
 21 48  1  6  0  0  0
 22 49  1  1  0  0  0
 23 24  1  0  0  0  0
 23 50  1  1  0  0  0
 24 27  1  0  0  0  0
 24 51  1  6  0  0  0
 25 52  1  1  0  0  0
 26 53  1  0  0  0  0
 26 54  1  0  0  0  0
 27 28  1  0  0  0  0
 27 55  1  1  0  0  0
 28 56  1  0  0  0  0
 28 57  1  0  0  0  0
 28 58  1  0  0  0  0
 29 30  2  0  0  0  0
 29 31  1  0  0  0  0
 30 33  1  0  0  0  0
 31 32  1  0  0  0  0
 32 34  1  0  0  0  0
 32 35  2  0  0  0  0
 33 37  2  0  0  0  0
 33 38  1  0  0  0  0
 34 36  2  0  0  0  0
 35 39  1  0  0  0  0
 36 40  1  0  0  0  0
 36 65  1  0  0  0  0
 37 41  1  0  0  0  0
 37 66  1  0  0  0  0
 38 42  2  0  0  0  0
 38 67  1  0  0  0  0
 39 40  2  0  0  0  0
 39 68  1  0  0  0  0
 41 43  2  0  0  0  0
 42 43  1  0  0  0  0
 42 69  1  0  0  0  0
M  END
>  <PUBCHEM_COMPOUND_CID>
5280805

>  <PUBCHEM_CONFORMER_RMSD>
1

>  <PUBCHEM_CONFORMER_DIVERSEORDER>
2
131
304
489
214
100
361
262
187
266
175
227
155
104
438
41
480
336
281
477
416
321
305
347
241
149
211
389
82
464
393
111
470
206
362
424
326
327
340
418
348
456
222
465
335
441
398
7
3
351
487
112
368
48
146
466
283
315
383
447
385
433
314
115
188
400
274
95
33
437
479
26
404
473
427
14
145
271
237
449
178
332
346
275
350
379
43
325
371
282
425
380
245
455
192
109
414
320
323
4
312
343
162
290
277
317
15
483
413
128
364
226
247
298
419
74
334
458
460
260
401
47
486
161
342
1
110
378
344
318
355
461
357
204
93
57
265
235
101
299
432
5
469
388
123
140
148
242
345
215
257
278
203
122
478
205
89
157
373
150
309
164
273
359
94
221
249
297
370
440
207
97
73
243
375
55
189
269
251
68
78
67
303
300
444
294
99
360
382
285
61
253
92
165
296
258
431
45
229
21
386
44
256
369
154
468
208
34
224
352
196
459
174
202
267
139
384
381
201
20
390
87
142
126
216
231
445
270
163
58
454
80
363
410
46
301
66
197
472
319
27
436
374
50
324
366
293
276
17
12
184
485
435
415
81
76
474
307
177
354
28
107
261
212
302
286
181
287
353
63
18
244
53
367
135
125
84
411
102
488
288
417
42
313
339
228
259
166
402
171
219
333
36
170
119
108
268
51
137
239
182
218
356
310
186
79
316
341
233
209
467
72
403
236
106
405
331
6
116
391
113
422
217
35
8
91
387
156
279
311
117
255
133
322
59
289
194
172
392
428
118
56
330
225
32
114
70
358
144
250
52
130
134
105
49
179
439
37
490
85
29
263
434
38
280
210
248
120
158
62
193
190
442
396
13
183
9
11
160
471
394
406
349
138
124
448
408
450
429
129
232
191
291
463
103
90
199
264
121
284
475
407
83
64
292
54
69
141
399
65
136
31
98
86
40
75
397
238
19
39
223
77
143
338
337
240
443
484
376
127
423
10
453
426
96
395
272
430
24
412
230
482
168
88
246
481
409
195
220
132
198
377
185
372
176
452
153
22
252
254
147
173
200
152
462
328
30
308
476
23
25
16
295
169
446
234
159
213
421
71
306
451
420
151
60
180
329
457
365
167

>  <PUBCHEM_MMFF94_PARTIAL_CHARGES>
57
1 -0.56
10 -0.68
11 -0.16
12 -0.57
13 -0.53
14 -0.53
15 -0.53
16 -0.53
17 0.28
18 0.28
19 0.28
2 -0.56
20 0.28
21 0.28
22 0.56
23 0.28
24 0.28
25 0.56
26 0.28
27 0.28
29 0.09
3 -0.56
30 0.05
31 0.47
32 0.09
33 0.03
34 0.08
35 0.08
36 -0.15
37 -0.15
38 -0.15
39 -0.15
4 -0.68
40 0.08
41 0.08
42 -0.15
43 0.08
5 -0.68
59 0.4
6 -0.36
60 0.4
61 0.4
62 0.4
63 0.4
64 0.4
65 0.15
66 0.15
67 0.15
68 0.15
69 0.15
7 -0.68
70 0.45
71 0.45
72 0.45
73 0.45
8 -0.68
9 -0.68

>  <PUBCHEM_EFFECTIVE_ROTOR_COUNT>
8.4

>  <PUBCHEM_PHARMACOPHORE_FEATURES>
27
1 1 acceptor
1 10 acceptor
1 10 donor
1 11 acceptor
1 12 acceptor
1 13 donor
1 14 donor
1 15 donor
1 16 donor
1 2 acceptor
1 3 acceptor
1 4 acceptor
1 4 donor
1 5 acceptor
1 5 donor
1 6 acceptor
1 7 acceptor
1 7 donor
1 8 acceptor
1 8 donor
1 9 acceptor
1 9 donor
6 1 17 18 19 20 25 rings
6 11 29 30 31 32 34 rings
6 3 21 22 23 24 27 rings
6 32 34 35 36 39 40 rings
6 33 37 38 41 42 43 rings

>  <PUBCHEM_HEAVY_ATOM_COUNT>
43

>  <PUBCHEM_ATOM_DEF_STEREO_COUNT>
10

>  <PUBCHEM_ATOM_UDEF_STEREO_COUNT>
0

>  <PUBCHEM_BOND_DEF_STEREO_COUNT>
0

>  <PUBCHEM_BOND_UDEF_STEREO_COUNT>
0

>  <PUBCHEM_ISOTOPIC_ATOM_COUNT>
0

>  <PUBCHEM_COMPONENT_COUNT>
1

>  <PUBCHEM_CACTVS_TAUTO_COUNT>
162

>  <PUBCHEM_CONFORMER_ID>
0050942500000002

>  <PUBCHEM_MMFF94_ENERGY>
136.1966

>  <PUBCHEM_FEATURE_SELFOVERLAP>
137.204

>  <PUBCHEM_SHAPE_FINGERPRINT>
10032420 55 16618722691837029128
11578080 2 17702109058163013238
11763715 3 18261095383836030923
12128747 34 17830706804582719010
12156800 1 18264493892630091420
12539773 59 16541837734788209111
14114207 22 16917072187542919862
15276724 80 18195220408896355960
16114785 44 17475453695688661424
18603816 31 14404615602411670896
20764821 26 18041559114480362497
25223398 141 17178842541083293593
25265897 201 16407044163570150168
3493558 16 16975116350754414899
35225 105 17325147011154151441
469060 322 17471915372670447110
46939830 39 16734080423712847612
57527358 35 16309142101817992987

>  <PUBCHEM_SHAPE_MULTIPOLES>
791.01
7.43
5.65
4.99
6.28
5.02
0.53
-4.78
-2.04
-1.61
4.22
-5.55
-0.17
4.43

>  <PUBCHEM_SHAPE_SELFOVERLAP>
1727.285

>  <PUBCHEM_SHAPE_VOLUME>
423.3

>  <PUBCHEM_COORDINATE_TYPE>
2
5
10

$$$$
5280863
 OpenBabel10062414423D

 31 33  0  0  0  0  0  0  0  0999 V2000
   -0.1128   -0.8909   -0.0017 O   0  0  0  0  0  0  0  0  0  0  0  0
    0.9956    2.6247   -0.0191 O   0  0  0  0  0  0  0  0  0  0  0  0
   -4.1670    1.7646    0.0025 O   0  0  0  0  0  0  0  0  0  0  0  0
   -1.7783    2.8281   -0.0053 O   0  0  0  0  0  0  0  0  0  0  0  0
   -4.3756   -2.9789   -0.0005 O   0  0  0  0  0  0  0  0  0  0  0  0
    6.1825   -0.8694   -0.0053 O   0  0  0  0  0  0  0  0  0  0  0  0
   -2.1071    0.4928    0.0012 C   0  0  0  0  0  0  0  0  0  0  0  0
   -1.4764   -0.7494    0.0002 C   0  0  0  0  0  0  0  0  0  0  0  0
    0.6707    0.2523    0.0098 C   0  0  0  0  0  0  0  0  0  0  0  0
   -1.2811    1.7099   -0.0003 C   0  0  0  0  0  0  0  0  0  0  0  0
    0.1879    1.5082    0.0025 C   0  0  0  0  0  0  0  0  0  0  0  0
    2.1150   -0.0408    0.0059 C   0  0  0  0  0  0  0  0  0  0  0  0
   -3.5018    0.5761    0.0019 C   0  0  0  0  0  0  0  0  0  0  0  0
   -2.2377   -1.9185   -0.0008 C   0  0  0  0  0  0  0  0  0  0  0  0
   -3.6304   -1.8396    0.0001 C   0  0  0  0  0  0  0  0  0  0  0  0
   -4.2610   -0.5947    0.0015 C   0  0  0  0  0  0  0  0  0  0  0  0
    2.8040   -0.1705    1.2120 C   0  0  0  0  0  0  0  0  0  0  0  0
    2.7935   -0.1896   -1.2039 C   0  0  0  0  0  0  0  0  0  0  0  0
    4.1709   -0.4487    1.2083 C   0  0  0  0  0  0  0  0  0  0  0  0
    4.1603   -0.4681   -1.2076 C   0  0  0  0  0  0  0  0  0  0  0  0
    4.8490   -0.5974   -0.0014 C   0  0  0  0  0  0  0  0  0  0  0  0
   -1.7487   -2.8895   -0.0022 H   0  0  0  0  0  0  0  0  0  0  0  0
   -5.3467   -0.5315    0.0020 H   0  0  0  0  0  0  0  0  0  0  0  0
    2.2887   -0.0578    2.1628 H   0  0  0  0  0  0  0  0  0  0  0  0
    2.2701   -0.0920   -2.1520 H   0  0  0  0  0  0  0  0  0  0  0  0
    4.6958   -0.5474    2.1548 H   0  0  0  0  0  0  0  0  0  0  0  0
    4.6831   -0.5832   -2.1531 H   0  0  0  0  0  0  0  0  0  0  0  0
    1.9285    2.3567   -0.0186 H   0  0  0  0  0  0  0  0  0  0  0  0
   -3.5413    2.5050    0.0071 H   0  0  0  0  0  0  0  0  0  0  0  0
   -5.3183   -2.7393    0.0003 H   0  0  0  0  0  0  0  0  0  0  0  0
    6.4954   -0.9249    0.9140 H   0  0  0  0  0  0  0  0  0  0  0  0
  1  8  1  0  0  0  0
  1  9  1  0  0  0  0
  2 11  1  0  0  0  0
  2 28  1  0  0  0  0
  3 13  1  0  0  0  0
  3 29  1  0  0  0  0
  4 10  2  0  0  0  0
  5 15  1  0  0  0  0
  5 30  1  0  0  0  0
  6 21  1  0  0  0  0
  6 31  1  0  0  0  0
  7  8  1  0  0  0  0
  7 10  1  0  0  0  0
  7 13  2  0  0  0  0
  8 14  2  0  0  0  0
  9 11  2  0  0  0  0
  9 12  1  0  0  0  0
 10 11  1  0  0  0  0
 12 17  2  0  0  0  0
 12 18  1  0  0  0  0
 13 16  1  0  0  0  0
 14 15  1  0  0  0  0
 14 22  1  0  0  0  0
 15 16  2  0  0  0  0
 16 23  1  0  0  0  0
 17 19  1  0  0  0  0
 17 24  1  0  0  0  0
 18 20  2  0  0  0  0
 18 25  1  0  0  0  0
 19 21  2  0  0  0  0
 19 26  1  0  0  0  0
 20 21  1  0  0  0  0
 20 27  1  0  0  0  0
M  END
>  <PUBCHEM_COMPOUND_CID>
5280863

>  <PUBCHEM_CONFORMER_RMSD>
0.6

>  <PUBCHEM_CONFORMER_DIVERSEORDER>
1

>  <PUBCHEM_MMFF94_PARTIAL_CHARGES>
31
1 -0.16
10 0.47
11 0.09
12 0.03
13 0.08
14 -0.15
15 0.08
16 -0.15
17 -0.15
18 -0.15
19 -0.15
2 -0.53
20 -0.15
21 0.08
22 0.15
23 0.15
24 0.15
25 0.15
26 0.15
27 0.15
28 0.45
29 0.45
3 -0.53
30 0.45
31 0.45
4 -0.57
5 -0.53
6 -0.53
7 0.09
8 0.08
9 0.05

>  <PUBCHEM_EFFECTIVE_ROTOR_COUNT>
1

>  <PUBCHEM_PHARMACOPHORE_FEATURES>
9
1 1 acceptor
1 2 donor
1 3 donor
1 4 acceptor
1 5 donor
1 6 donor
6 1 7 8 9 10 11 rings
6 12 17 18 19 20 21 rings
6 7 8 13 14 15 16 rings

>  <PUBCHEM_HEAVY_ATOM_COUNT>
21

>  <PUBCHEM_ATOM_DEF_STEREO_COUNT>
0

>  <PUBCHEM_ATOM_UDEF_STEREO_COUNT>
0

>  <PUBCHEM_BOND_DEF_STEREO_COUNT>
0

>  <PUBCHEM_BOND_UDEF_STEREO_COUNT>
0

>  <PUBCHEM_ISOTOPIC_ATOM_COUNT>
0

>  <PUBCHEM_COMPONENT_COUNT>
1

>  <PUBCHEM_CACTVS_TAUTO_COUNT>
126

>  <PUBCHEM_CONFORMER_ID>
0050945F00000001

>  <PUBCHEM_MMFF94_ENERGY>
63.6634

>  <PUBCHEM_FEATURE_SELFOVERLAP>
45.701

>  <PUBCHEM_SHAPE_FINGERPRINT>
10062212 137 18259704501815817475
10319926 262 18198039440708472114
10411042 1 18266459996136868551
10493431 412 18054800477274442545
10616163 171 18411139112664406262
11046707 91 18409730677123910171
11370993 144 16916517955761329203
11543360 7 15719391793172269227
12107183 9 17541371342140675274
12236239 1 17749392534061481470
12363563 72 18339086002704009255
12553582 1 18335417984827221099
13140716 1 18340488962783208193
13288520 33 18410856568303811111
13675066 3 17917989503163926634
13862211 1 18411135875018635839
14386348 63 17917994953962754494
14790565 3 17907586822313171969
15042514 8 18410016533441990531
15196674 1 18410575127634143204
15536298 74 18268991053969707425
16752209 62 18261663818488179675
16945 1 18410573947008695237
17492 89 17979916334999118719
17804303 29 18413387644160661329
18222031 100 18270674402272329287
19141452 34 17846780749752405951
200 152 16588024589466838308
20028762 73 17985829461378751375
21033648 29 17203314598809963442
21065201 7 18341611465349671010
21267235 1 18408891762974708547
221490 88 18191593162225813571
2297311 6 18341902883091139510
23366157 5 17970347246368186860
23402539 116 18409726249144594518
23557571 272 18201721691948635868
23559900 14 18271250400689538198
25147074 1 18264787600074730613
2748010 2 18267295620510030677
3004659 81 18113614624936730478
312423 11 18190190164135409397
335352 9 18410291424544975637
4214541 1 18410855451569901696
474 4 17024325213363864316
5104073 3 18342177807789199753
559249 180 18261388901826549970
573450 72 18260823774456318682
59755656 215 18267868281237107870
602551 16 18412822482673668010
67856867 119 18260834856110609924
7364860 26 18054791946941650728
7495541 125 18130786776881943360
77492 1 17676211226149614980
7970288 3 18338515373228633302
8863177 126 17536044590725800739
9709674 26 18120654892652843899

>  <PUBCHEM_SHAPE_MULTIPOLES>
396.95
10.55
2.4
0.89
7.48
0.59
0
-4.96
0.01
-3.3
-0.01
1.05
-0.1
0.01

>  <PUBCHEM_SHAPE_SELFOVERLAP>
889.871

>  <PUBCHEM_SHAPE_VOLUME>
208.9

>  <PUBCHEM_COORDINATE_TYPE>
2
5
10

$$$$
5280899
 OpenBabel10062414423D

 98 99  0  0  1  0  0  0  0  0999 V2000
   14.8482   -2.4543   -0.0365 O   0  0  0  0  0  0  0  0  0  0  0  0
  -15.2598    1.4474   -0.1037 O   0  0  0  0  0  0  0  0  0  0  0  0
   11.0852   -1.9694   -0.1707 C   0  0  0  0  0  0  0  0  0  0  0  0
  -12.5476   -1.0971    0.6594 C   0  0  0  0  0  0  0  0  0  0  0  0
   12.4582   -2.5665    0.2364 C   0  0  0  0  0  0  0  0  0  0  0  0
  -13.9545   -0.5275    0.3378 C   0  0  0  0  0  0  0  0  0  0  0  0
   13.6189   -1.8692   -0.4551 C   0  0  1  0  0  0  0  0  0  0  0  0
  -13.9464    0.9864    0.1983 C   0  0  1  0  0  0  0  0  0  0  0  0
   11.1159   -0.4228   -0.1719 C   0  0  0  0  0  0  0  0  0  0  0  0
  -11.4561   -0.4479   -0.2239 C   0  0  0  0  0  0  0  0  0  0  0  0
   13.6327   -0.3933   -0.0809 C   0  0  0  0  0  0  0  0  0  0  0  0
  -13.0166    1.3963   -0.9358 C   0  0  0  0  0  0  0  0  0  0  0  0
   12.2754    0.2787   -0.1044 C   0  0  0  0  0  0  0  0  0  0  0  0
  -11.6896    0.6665   -0.9620 C   0  0  0  0  0  0  0  0  0  0  0  0
   10.0580   -2.5309    0.8424 C   0  0  0  0  0  0  0  0  0  0  0  0
   10.7148   -2.4809   -1.5815 C   0  0  0  0  0  0  0  0  0  0  0  0
  -12.2302   -0.8367    2.1496 C   0  0  0  0  0  0  0  0  0  0  0  0
  -12.6446   -2.6260    0.4363 C   0  0  0  0  0  0  0  0  0  0  0  0
    9.8216    0.2307   -0.2763 C   0  0  0  0  0  0  0  0  0  0  0  0
  -10.1550   -1.0957   -0.1916 C   0  0  0  0  0  0  0  0  0  0  0  0
   12.3950    1.7843   -0.0475 C   0  0  0  0  0  0  0  0  0  0  0  0
  -10.7013    1.3346   -1.8898 C   0  0  0  0  0  0  0  0  0  0  0  0
    9.5058    1.3441    0.4039 C   0  0  0  0  0  0  0  0  0  0  0  0
   -8.9969   -0.4171   -0.1546 C   0  0  0  0  0  0  0  0  0  0  0  0
    8.2281    2.0555    0.3582 C   0  0  0  0  0  0  0  0  0  0  0  0
   -7.6545   -0.9980   -0.1171 C   0  0  0  0  0  0  0  0  0  0  0  0
    8.2666    3.5644    0.3172 C   0  0  0  0  0  0  0  0  0  0  0  0
   -7.5490   -2.5059   -0.1113 C   0  0  0  0  0  0  0  0  0  0  0  0
    7.0292    1.4352    0.3204 C   0  0  0  0  0  0  0  0  0  0  0  0
   -6.5153   -0.2731   -0.0804 C   0  0  0  0  0  0  0  0  0  0  0  0
    5.7050    2.0229    0.2735 C   0  0  0  0  0  0  0  0  0  0  0  0
   -5.1434   -0.7466   -0.0416 C   0  0  0  0  0  0  0  0  0  0  0  0
    4.5650    1.3129    0.2381 C   0  0  0  0  0  0  0  0  0  0  0  0
   -4.0917    0.0901   -0.0071 C   0  0  0  0  0  0  0  0  0  0  0  0
    3.1985    1.8439    0.2077 C   0  0  0  0  0  0  0  0  0  0  0  0
   -2.6795   -0.2912    0.0302 C   0  0  0  0  0  0  0  0  0  0  0  0
    3.0407    3.3435    0.1944 C   0  0  0  0  0  0  0  0  0  0  0  0
   -2.3484   -1.7636    0.0642 C   0  0  0  0  0  0  0  0  0  0  0  0
    2.1754    0.9630    0.1738 C   0  0  0  0  0  0  0  0  0  0  0  0
   -1.6696    0.6044    0.0639 C   0  0  0  0  0  0  0  0  0  0  0  0
    0.7549    1.2544    0.1357 C   0  0  0  0  0  0  0  0  0  0  0  0
   -0.2430    0.3547    0.1024 C   0  0  0  0  0  0  0  0  0  0  0  0
   12.6013   -2.4887    1.3243 H   0  0  0  0  0  0  0  0  0  0  0  0
   12.4933   -3.6436    0.0249 H   0  0  0  0  0  0  0  0  0  0  0  0
  -14.6802   -0.8244    1.1069 H   0  0  0  0  0  0  0  0  0  0  0  0
  -14.3386   -0.9639   -0.5961 H   0  0  0  0  0  0  0  0  0  0  0  0
   13.5531   -1.9826   -1.5428 H   0  0  0  0  0  0  0  0  0  0  0  0
  -13.6358    1.4660    1.1329 H   0  0  0  0  0  0  0  0  0  0  0  0
   14.0689   -0.2635    0.9188 H   0  0  0  0  0  0  0  0  0  0  0  0
   14.3195    0.1136   -0.7712 H   0  0  0  0  0  0  0  0  0  0  0  0
  -13.5185    1.2458   -1.9013 H   0  0  0  0  0  0  0  0  0  0  0  0
  -12.8444    2.4780   -0.8569 H   0  0  0  0  0  0  0  0  0  0  0  0
   10.1088   -3.6252    0.8887 H   0  0  0  0  0  0  0  0  0  0  0  0
    9.0290   -2.2697    0.5709 H   0  0  0  0  0  0  0  0  0  0  0  0
   10.2442   -2.1445    1.8512 H   0  0  0  0  0  0  0  0  0  0  0  0
   11.3658   -2.0550   -2.3528 H   0  0  0  0  0  0  0  0  0  0  0  0
   10.8009   -3.5723   -1.6397 H   0  0  0  0  0  0  0  0  0  0  0  0
    9.6826   -2.2302   -1.8498 H   0  0  0  0  0  0  0  0  0  0  0  0
  -12.1163    0.2319    2.3618 H   0  0  0  0  0  0  0  0  0  0  0  0
  -11.2989   -1.3289    2.4531 H   0  0  0  0  0  0  0  0  0  0  0  0
  -13.0259   -1.2233    2.7967 H   0  0  0  0  0  0  0  0  0  0  0  0
  -13.5257   -3.0392    0.9423 H   0  0  0  0  0  0  0  0  0  0  0  0
  -11.7785   -3.1616    0.8399 H   0  0  0  0  0  0  0  0  0  0  0  0
  -12.7308   -2.8691   -0.6291 H   0  0  0  0  0  0  0  0  0  0  0  0
    9.1025   -0.2055   -0.9631 H   0  0  0  0  0  0  0  0  0  0  0  0
  -10.1508   -2.1783   -0.2404 H   0  0  0  0  0  0  0  0  0  0  0  0
   11.6229    2.3048   -0.6194 H   0  0  0  0  0  0  0  0  0  0  0  0
   12.4080    2.1330    0.9897 H   0  0  0  0  0  0  0  0  0  0  0  0
   13.3367    2.1110   -0.5049 H   0  0  0  0  0  0  0  0  0  0  0  0
  -11.2247    1.7322   -2.7679 H   0  0  0  0  0  0  0  0  0  0  0  0
   -9.9509    0.6517   -2.2959 H   0  0  0  0  0  0  0  0  0  0  0  0
  -10.2109    2.1763   -1.3909 H   0  0  0  0  0  0  0  0  0  0  0  0
   14.8231   -3.3949   -0.2818 H   0  0  0  0  0  0  0  0  0  0  0  0
  -15.8402    1.1778    0.6286 H   0  0  0  0  0  0  0  0  0  0  0  0
   10.1870    1.7736    1.1329 H   0  0  0  0  0  0  0  0  0  0  0  0
   -9.0026    0.6675   -0.0731 H   0  0  0  0  0  0  0  0  0  0  0  0
    9.2862    3.9274    0.1424 H   0  0  0  0  0  0  0  0  0  0  0  0
    7.6538    3.9652   -0.4972 H   0  0  0  0  0  0  0  0  0  0  0  0
    7.9283    3.9852    1.2700 H   0  0  0  0  0  0  0  0  0  0  0  0
   -8.1076   -2.9168    0.7385 H   0  0  0  0  0  0  0  0  0  0  0  0
   -7.9789   -2.9137   -1.0340 H   0  0  0  0  0  0  0  0  0  0  0  0
   -6.5482   -2.9274   -0.0316 H   0  0  0  0  0  0  0  0  0  0  0  0
    7.0248    0.3446    0.3432 H   0  0  0  0  0  0  0  0  0  0  0  0
   -6.6169    0.8130   -0.0817 H   0  0  0  0  0  0  0  0  0  0  0  0
    5.6600    3.1072    0.2822 H   0  0  0  0  0  0  0  0  0  0  0  0
   -4.9594   -1.8115   -0.0491 H   0  0  0  0  0  0  0  0  0  0  0  0
    4.6459    0.2257    0.2366 H   0  0  0  0  0  0  0  0  0  0  0  0
   -4.2768    1.1638   -0.0064 H   0  0  0  0  0  0  0  0  0  0  0  0
    3.4769    3.7823    1.0989 H   0  0  0  0  0  0  0  0  0  0  0  0
    2.0030    3.6799    0.1555 H   0  0  0  0  0  0  0  0  0  0  0  0
    3.5395    3.7742   -0.6811 H   0  0  0  0  0  0  0  0  0  0  0  0
   -2.8508   -2.2408    0.9143 H   0  0  0  0  0  0  0  0  0  0  0  0
   -2.6996   -2.2460   -0.8558 H   0  0  0  0  0  0  0  0  0  0  0  0
   -1.2975   -2.0297    0.1655 H   0  0  0  0  0  0  0  0  0  0  0  0
    2.4036   -0.1034    0.1777 H   0  0  0  0  0  0  0  0  0  0  0  0
   -1.9308    1.6631    0.0541 H   0  0  0  0  0  0  0  0  0  0  0  0
    0.4670    2.3016    0.1383 H   0  0  0  0  0  0  0  0  0  0  0  0
    0.0791   -0.6810    0.0960 H   0  0  0  0  0  0  0  0  0  0  0  0
  1  7  1  0  0  0  0
  1 73  1  0  0  0  0
  2  8  1  0  0  0  0
  2 74  1  0  0  0  0
  3  5  1  0  0  0  0
  3  9  1  0  0  0  0
  3 15  1  0  0  0  0
  3 16  1  0  0  0  0
  4  6  1  0  0  0  0
  4 10  1  0  0  0  0
  4 17  1  0  0  0  0
  4 18  1  0  0  0  0
  5  7  1  0  0  0  0
  5 43  1  0  0  0  0
  5 44  1  0  0  0  0
  6  8  1  0  0  0  0
  6 45  1  0  0  0  0
  6 46  1  0  0  0  0
  7 11  1  0  0  0  0
  7 47  1  6  0  0  0
  8 12  1  0  0  0  0
  8 48  1  1  0  0  0
  9 13  2  0  0  0  0
  9 19  1  0  0  0  0
 10 14  2  0  0  0  0
 10 20  1  0  0  0  0
 11 13  1  0  0  0  0
 11 49  1  0  0  0  0
 11 50  1  0  0  0  0
 12 14  1  0  0  0  0
 12 51  1  0  0  0  0
 12 52  1  0  0  0  0
 13 21  1  0  0  0  0
 14 22  1  0  0  0  0
 15 53  1  0  0  0  0
 15 54  1  0  0  0  0
 15 55  1  0  0  0  0
 16 56  1  0  0  0  0
 16 57  1  0  0  0  0
 16 58  1  0  0  0  0
 17 59  1  0  0  0  0
 17 60  1  0  0  0  0
 17 61  1  0  0  0  0
 18 62  1  0  0  0  0
 18 63  1  0  0  0  0
 18 64  1  0  0  0  0
 19 23  2  0  0  0  0
 19 65  1  0  0  0  0
 20 24  2  0  0  0  0
 20 66  1  0  0  0  0
 21 67  1  0  0  0  0
 21 68  1  0  0  0  0
 21 69  1  0  0  0  0
 22 70  1  0  0  0  0
 22 71  1  0  0  0  0
 22 72  1  0  0  0  0
 23 25  1  0  0  0  0
 23 75  1  0  0  0  0
 24 26  1  0  0  0  0
 24 76  1  0  0  0  0
 25 27  1  0  0  0  0
 25 29  2  0  0  0  0
 26 28  1  0  0  0  0
 26 30  2  0  0  0  0
 27 77  1  0  0  0  0
 27 78  1  0  0  0  0
 27 79  1  0  0  0  0
 28 80  1  0  0  0  0
 28 81  1  0  0  0  0
 28 82  1  0  0  0  0
 29 31  1  0  0  0  0
 29 83  1  0  0  0  0
 30 32  1  0  0  0  0
 30 84  1  0  0  0  0
 31 33  2  0  0  0  0
 31 85  1  0  0  0  0
 32 34  2  0  0  0  0
 32 86  1  0  0  0  0
 33 35  1  0  0  0  0
 33 87  1  0  0  0  0
 34 36  1  0  0  0  0
 34 88  1  0  0  0  0
 35 37  1  0  0  0  0
 35 39  2  0  0  0  0
 36 38  1  0  0  0  0
 36 40  2  0  0  0  0
 37 89  1  0  0  0  0
 37 90  1  0  0  0  0
 37 91  1  0  0  0  0
 38 92  1  0  0  0  0
 38 93  1  0  0  0  0
 38 94  1  0  0  0  0
 39 41  1  0  0  0  0
 39 95  1  0  0  0  0
 40 42  1  0  0  0  0
 40 96  1  0  0  0  0
 41 42  2  0  0  0  0
 41 97  1  0  0  0  0
 42 98  1  0  0  0  0
M  END
>  <PUBCHEM_COMPOUND_CID>
5280899

>  <PUBCHEM_CONFORMER_RMSD>
1.2

>  <PUBCHEM_CONFORMER_DIVERSEORDER>
4
34
22
56
1
19
7
58
30
29
55
35
21
10
37
52
26
67
40
45
28
5
13
57
47
27
64
43
18
3
31
48
11
53
60
44
14
6
59
33
66
61
65
25
50
42
9
20
62
24
49
46
23
39
38
54
63
32
2
51
8
16
17
15
36
41
12

>  <PUBCHEM_MMFF94_PARTIAL_CHARGES>
52
1 -0.68
10 -0.14
11 0.14
12 0.14
13 -0.28
14 -0.28
19 -0.15
2 -0.68
20 -0.15
21 0.14
22 0.14
23 -0.15
24 -0.15
25 -0.14
26 -0.14
27 0.14
28 0.14
29 -0.15
3 0.14
30 -0.15
31 -0.15
32 -0.15
33 -0.15
34 -0.15
35 -0.14
36 -0.14
37 0.14
38 0.14
39 -0.15
4 0.14
40 -0.15
41 -0.15
42 -0.15
65 0.15
66 0.15
7 0.28
73 0.4
74 0.4
75 0.15
76 0.15
8 0.28
83 0.15
84 0.15
85 0.15
86 0.15
87 0.15
88 0.15
9 -0.14
95 0.15
96 0.15
97 0.15
98 0.15

>  <PUBCHEM_EFFECTIVE_ROTOR_COUNT>
11.6

>  <PUBCHEM_PHARMACOPHORE_FEATURES>
12
1 1 acceptor
1 1 donor
1 2 acceptor
1 2 donor
1 27 hydrophobe
1 28 hydrophobe
1 37 hydrophobe
1 38 hydrophobe
3 3 15 16 hydrophobe
3 4 17 18 hydrophobe
6 3 5 7 9 11 13 rings
6 4 6 8 10 12 14 rings

>  <PUBCHEM_HEAVY_ATOM_COUNT>
42

>  <PUBCHEM_ATOM_DEF_STEREO_COUNT>
2

>  <PUBCHEM_ATOM_UDEF_STEREO_COUNT>
0

>  <PUBCHEM_BOND_DEF_STEREO_COUNT>
9

>  <PUBCHEM_BOND_UDEF_STEREO_COUNT>
0

>  <PUBCHEM_ISOTOPIC_ATOM_COUNT>
0

>  <PUBCHEM_COMPONENT_COUNT>
1

>  <PUBCHEM_CACTVS_TAUTO_COUNT>
1

>  <PUBCHEM_CONFORMER_ID>
0050948300000004

>  <PUBCHEM_MMFF94_ENERGY>
120.0869

>  <PUBCHEM_FEATURE_SELFOVERLAP>
60.899

>  <PUBCHEM_SHAPE_FINGERPRINT>
12013929 2 18333729135394277145
12559415 86 17749383738037492669
12559415 90 17847061081962146889
15219723 13 18412263943673154867
15343295 29 18413385425060586501
15538507 75 18343867727175356535
21362035 211 18412262874601624022
3092352 35 18059856212834042287
3991529 128 13406794419403995985
54131252 152 17846494860509229407
9663363 56 13830137195461151681

>  <PUBCHEM_SHAPE_MULTIPOLES>
852.6
94.18
3.19
0.98
44.72
0.15
0.03
-32.53
3.5
-9.43
-0.09
2.04
-0.12
3.68

>  <PUBCHEM_SHAPE_SELFOVERLAP>
1729.753

>  <PUBCHEM_SHAPE_VOLUME>
495.9

>  <PUBCHEM_COORDINATE_TYPE>
2
5
10

$$$$
5280961
 OpenBabel10062414423D

 30 32  0  0  0  0  0  0  0  0999 V2000
    1.2051    2.0344   -0.0191 O   0  0  0  0  0  0  0  0  0  0  0  0
    2.3770   -2.6680   -0.0009 O   0  0  0  0  0  0  0  0  0  0  0  0
   -0.0855   -1.8360   -0.0685 O   0  0  0  0  0  0  0  0  0  0  0  0
    5.7528    0.6696    0.0402 O   0  0  0  0  0  0  0  0  0  0  0  0
   -6.2316   -0.2771    0.0415 O   0  0  0  0  0  0  0  0  0  0  0  0
    1.7278   -0.3357   -0.0110 C   0  0  0  0  0  0  0  0  0  0  0  0
   -0.6569    0.4751   -0.0269 C   0  0  0  0  0  0  0  0  0  0  0  0
    2.1110    1.0050   -0.0063 C   0  0  0  0  0  0  0  0  0  0  0  0
    0.2923   -0.6720   -0.0338 C   0  0  0  0  0  0  0  0  0  0  0  0
   -2.1156    0.2792   -0.0089 C   0  0  0  0  0  0  0  0  0  0  0  0
    2.6957   -1.3435    0.0017 C   0  0  0  0  0  0  0  0  0  0  0  0
   -0.1296    1.7087   -0.0190 C   0  0  0  0  0  0  0  0  0  0  0  0
    3.4639    1.3457    0.0107 C   0  0  0  0  0  0  0  0  0  0  0  0
    4.0482   -1.0002    0.0194 C   0  0  0  0  0  0  0  0  0  0  0  0
    4.4317    0.3413    0.0237 C   0  0  0  0  0  0  0  0  0  0  0  0
   -2.8266    0.2009   -1.2082 C   0  0  0  0  0  0  0  0  0  0  0  0
   -2.7928    0.1698    1.2074 C   0  0  0  0  0  0  0  0  0  0  0  0
   -4.2089    0.0143   -1.1914 C   0  0  0  0  0  0  0  0  0  0  0  0
   -4.1749   -0.0169    1.2242 C   0  0  0  0  0  0  0  0  0  0  0  0
   -4.8831   -0.0945    0.0249 C   0  0  0  0  0  0  0  0  0  0  0  0
   -0.7215    2.6158   -0.0091 H   0  0  0  0  0  0  0  0  0  0  0  0
    3.7649    2.3903    0.0139 H   0  0  0  0  0  0  0  0  0  0  0  0
    4.8016   -1.7845    0.0296 H   0  0  0  0  0  0  0  0  0  0  0  0
   -2.3152    0.2826   -2.1644 H   0  0  0  0  0  0  0  0  0  0  0  0
   -2.2551    0.2272    2.1508 H   0  0  0  0  0  0  0  0  0  0  0  0
   -4.7488   -0.0450   -2.1326 H   0  0  0  0  0  0  0  0  0  0  0  0
   -4.6946   -0.1015    2.1747 H   0  0  0  0  0  0  0  0  0  0  0  0
    1.4152   -2.7879    0.0091 H   0  0  0  0  0  0  0  0  0  0  0  0
    6.2809   -0.1471    0.0473 H   0  0  0  0  0  0  0  0  0  0  0  0
   -6.5567   -0.3074   -0.8746 H   0  0  0  0  0  0  0  0  0  0  0  0
  1  8  1  0  0  0  0
  1 12  1  0  0  0  0
  2 11  1  0  0  0  0
  2 28  1  0  0  0  0
  3  9  2  0  0  0  0
  4 15  1  0  0  0  0
  4 29  1  0  0  0  0
  5 20  1  0  0  0  0
  5 30  1  0  0  0  0
  6  8  1  0  0  0  0
  6  9  1  0  0  0  0
  6 11  2  0  0  0  0
  7  9  1  0  0  0  0
  7 10  1  0  0  0  0
  7 12  2  0  0  0  0
  8 13  2  0  0  0  0
 10 16  2  0  0  0  0
 10 17  1  0  0  0  0
 11 14  1  0  0  0  0
 12 21  1  0  0  0  0
 13 15  1  0  0  0  0
 13 22  1  0  0  0  0
 14 15  2  0  0  0  0
 14 23  1  0  0  0  0
 16 18  1  0  0  0  0
 16 24  1  0  0  0  0
 17 19  2  0  0  0  0
 17 25  1  0  0  0  0
 18 20  2  0  0  0  0
 18 26  1  0  0  0  0
 19 20  1  0  0  0  0
 19 27  1  0  0  0  0
M  END
>  <PUBCHEM_COMPOUND_CID>
5280961

>  <PUBCHEM_CONFORMER_RMSD>
0.6

>  <PUBCHEM_CONFORMER_DIVERSEORDER>
1
2

>  <PUBCHEM_MMFF94_PARTIAL_CHARGES>
30
1 -0.16
10 0.03
11 0.08
12 -0.07
13 -0.15
14 -0.15
15 0.08
16 -0.15
17 -0.15
18 -0.15
19 -0.15
2 -0.53
20 0.08
21 0.15
22 0.15
23 0.15
24 0.15
25 0.15
26 0.15
27 0.15
28 0.45
29 0.45
3 -0.57
30 0.45
4 -0.53
5 -0.53
6 0.09
7 -0.01
8 0.08
9 0.47

>  <PUBCHEM_EFFECTIVE_ROTOR_COUNT>
1

>  <PUBCHEM_PHARMACOPHORE_FEATURES>
8
1 1 acceptor
1 2 donor
1 3 acceptor
1 4 donor
1 5 donor
6 1 6 7 8 9 12 rings
6 10 16 17 18 19 20 rings
6 6 8 11 13 14 15 rings

>  <PUBCHEM_HEAVY_ATOM_COUNT>
20

>  <PUBCHEM_ATOM_DEF_STEREO_COUNT>
0

>  <PUBCHEM_ATOM_UDEF_STEREO_COUNT>
0

>  <PUBCHEM_BOND_DEF_STEREO_COUNT>
0

>  <PUBCHEM_BOND_UDEF_STEREO_COUNT>
0

>  <PUBCHEM_ISOTOPIC_ATOM_COUNT>
0

>  <PUBCHEM_COMPONENT_COUNT>
1

>  <PUBCHEM_CACTVS_TAUTO_COUNT>
24

>  <PUBCHEM_CONFORMER_ID>
005094C100000001

>  <PUBCHEM_MMFF94_ENERGY>
62.2288

>  <PUBCHEM_FEATURE_SELFOVERLAP>
40.625

>  <PUBCHEM_SHAPE_FINGERPRINT>
10 15 17968651735852241568
11471102 20 18410011039915055268
11796584 16 16298104272158585042
12011746 2 18408891737046259404
12107183 9 17481158795205446827
12236239 1 17775568632984956433
12596602 18 17346595322179823779
13140716 1 18194963165723870696
13836976 161 18334862748893370556
13862211 1 18410853231726210242
14386348 63 17894634751351534131
15196674 1 18338798901320010860
15375358 24 18040718064813932202
15375462 189 18131630071354825257
15788980 27 15936413342343465497
15961568 22 15936980763574484908
16945 1 18410855465014102696
1813 80 18271540705560145676
19489759 90 16153423943970350949
200 152 18343862212954338993
20279233 1 17821452352412486003
20645477 70 18335980874408649870
21033648 29 18114445830026487037
21065198 48 17988931015991034643
21267235 1 18339929225607664382
21641784 216 18042422273963395132
22224240 67 18342450487532548904
23402539 116 17775565342486457572
23536379 177 15841559565638082980
23557571 272 17095518474807470397
23559900 14 16950281750432500898
26918003 58 18260551134301111081
2748010 2 18121775029009032932
2871803 45 18334013852823096778
335352 9 18411139165358697628
33824 294 18408039594149944154
34797466 226 16226060980367338734
34934 24 18409725188361700594
3545911 37 18410293635509107947
4072396 5 18262223474792275538
42630746 31 18413672409272107838
4340502 62 16949999236168377650
474 4 17772457134984702568
5104073 3 18265892467099301696
542803 24 17418095416598888849
602551 16 16226338113105518851
7495541 125 17095532836967104597
77492 1 17703790323495757877

>  <PUBCHEM_SHAPE_MULTIPOLES>
382.24
11.31
1.69
0.91
4.74
0.43
0.01
0.27
0.19
-1.88
-0.02
1.1
-0.03
0.03

>  <PUBCHEM_SHAPE_SELFOVERLAP>
856.838

>  <PUBCHEM_SHAPE_VOLUME>
201.4

>  <PUBCHEM_COORDINATE_TYPE>
2
5
10

$$$$
5281243
 OpenBabel10062414423D

 98 99  0  0  1  0  0  0  0  0999 V2000
   14.2202   -2.1983   -0.9574 O   0  0  0  0  0  0  0  0  0  0  0  0
  -15.0226    0.6331   -0.7855 O   0  0  0  0  0  0  0  0  0  0  0  0
   11.9752    0.1614   -1.2392 C   0  0  0  0  0  0  0  0  0  0  0  0
   11.1158    0.0269    0.0663 C   0  0  2  0  0  0  0  0  0  0  0  0
   12.1845   -1.2411   -1.8671 C   0  0  0  0  0  0  0  0  0  0  0  0
   12.7962   -2.2639   -0.8989 C   0  0  2  0  0  0  0  0  0  0  0  0
   11.6367   -1.0671    0.9880 C   0  0  0  0  0  0  0  0  0  0  0  0
  -11.4205   -0.0200   -1.7914 C   0  0  0  0  0  0  0  0  0  0  0  0
   11.2955    1.0766   -2.2823 C   0  0  0  0  0  0  0  0  0  0  0  0
   13.3384    0.8139   -0.9013 C   0  0  0  0  0  0  0  0  0  0  0  0
  -12.8431    0.5990   -1.8093 C   0  0  0  0  0  0  0  0  0  0  0  0
   12.3903   -2.0845    0.5333 C   0  0  0  0  0  0  0  0  0  0  0  0
  -13.7374    0.0221   -0.7235 C   0  0  1  0  0  0  0  0  0  0  0  0
  -10.8597   -0.1143   -0.3529 C   0  0  0  0  0  0  0  0  0  0  0  0
    9.6529   -0.2077   -0.2068 C   0  0  0  0  0  0  0  0  0  0  0  0
  -13.1339    0.3016    0.6462 C   0  0  0  0  0  0  0  0  0  0  0  0
  -11.6418    0.0594    0.7423 C   0  0  0  0  0  0  0  0  0  0  0  0
  -10.5500    0.8840   -2.6980 C   0  0  0  0  0  0  0  0  0  0  0  0
  -11.4806   -1.4322   -2.4172 C   0  0  0  0  0  0  0  0  0  0  0  0
   11.2820   -0.9491    2.4445 C   0  0  0  0  0  0  0  0  0  0  0  0
    8.6834    0.6429    0.1671 C   0  0  0  0  0  0  0  0  0  0  0  0
   -9.4437   -0.4271   -0.2504 C   0  0  0  0  0  0  0  0  0  0  0  0
  -11.1694    0.0369    2.1777 C   0  0  0  0  0  0  0  0  0  0  0  0
    7.2430    0.4900   -0.0591 C   0  0  0  0  0  0  0  0  0  0  0  0
   -8.9418   -1.2753    0.6590 C   0  0  0  0  0  0  0  0  0  0  0  0
    6.7867   -0.7536   -0.7814 C   0  0  0  0  0  0  0  0  0  0  0  0
   -7.5287   -1.5910    0.8024 C   0  0  0  0  0  0  0  0  0  0  0  0
    6.4186    1.4592    0.3943 C   0  0  0  0  0  0  0  0  0  0  0  0
   -7.2551   -3.0501    1.0554 C   0  0  0  0  0  0  0  0  0  0  0  0
   -6.5141   -0.7097    0.7014 C   0  0  0  0  0  0  0  0  0  0  0  0
    4.9757    1.5169    0.2777 C   0  0  0  0  0  0  0  0  0  0  0  0
   -5.0925   -0.9543    0.8322 C   0  0  0  0  0  0  0  0  0  0  0  0
    4.2442    2.5323    0.7664 C   0  0  0  0  0  0  0  0  0  0  0  0
    2.7955    2.6308    0.6533 C   0  0  0  0  0  0  0  0  0  0  0  0
   -4.0829   -0.0728    0.7308 C   0  0  0  0  0  0  0  0  0  0  0  0
   -2.6478   -0.3129    0.8616 C   0  0  0  0  0  0  0  0  0  0  0  0
    2.3036    4.0287    0.3858 C   0  0  0  0  0  0  0  0  0  0  0  0
    1.9267    1.6084    0.7882 C   0  0  0  0  0  0  0  0  0  0  0  0
   -1.7557    0.6894    0.7309 C   0  0  0  0  0  0  0  0  0  0  0  0
   -2.3128   -1.7609    1.1041 C   0  0  0  0  0  0  0  0  0  0  0  0
    0.4823    1.6717    0.6820 C   0  0  0  0  0  0  0  0  0  0  0  0
   -0.3133    0.6005    0.8308 C   0  0  0  0  0  0  0  0  0  0  0  0
   11.2226    0.9805    0.6047 H   0  0  0  0  0  0  0  0  0  0  0  0
   12.8159   -1.1562   -2.7611 H   0  0  0  0  0  0  0  0  0  0  0  0
   11.2148   -1.6270   -2.2081 H   0  0  0  0  0  0  0  0  0  0  0  0
   12.5121   -3.2684   -1.2330 H   0  0  0  0  0  0  0  0  0  0  0  0
   10.3653    0.6438   -2.6657 H   0  0  0  0  0  0  0  0  0  0  0  0
   11.0616    2.0576   -1.8537 H   0  0  0  0  0  0  0  0  0  0  0  0
   11.9504    1.2393   -3.1464 H   0  0  0  0  0  0  0  0  0  0  0  0
   13.8809    0.2843   -0.1132 H   0  0  0  0  0  0  0  0  0  0  0  0
   13.9869    0.8471   -1.7841 H   0  0  0  0  0  0  0  0  0  0  0  0
   13.2001    1.8451   -0.5554 H   0  0  0  0  0  0  0  0  0  0  0  0
  -12.7867    1.6893   -1.6748 H   0  0  0  0  0  0  0  0  0  0  0  0
  -13.3161    0.4604   -2.7908 H   0  0  0  0  0  0  0  0  0  0  0  0
   12.7437   -2.8395    1.2319 H   0  0  0  0  0  0  0  0  0  0  0  0
  -13.8782   -1.0556   -0.8611 H   0  0  0  0  0  0  0  0  0  0  0  0
    9.4008   -1.1254   -0.7319 H   0  0  0  0  0  0  0  0  0  0  0  0
  -13.6599   -0.3229    1.3806 H   0  0  0  0  0  0  0  0  0  0  0  0
  -13.3400    1.3402    0.9389 H   0  0  0  0  0  0  0  0  0  0  0  0
   -9.5826    0.4280   -2.9345 H   0  0  0  0  0  0  0  0  0  0  0  0
  -10.3635    1.8573   -2.2295 H   0  0  0  0  0  0  0  0  0  0  0  0
  -11.0471    1.0687   -3.6581 H   0  0  0  0  0  0  0  0  0  0  0  0
  -12.0583   -2.1280   -1.7992 H   0  0  0  0  0  0  0  0  0  0  0  0
  -10.4785   -1.8602   -2.5379 H   0  0  0  0  0  0  0  0  0  0  0  0
  -11.9422   -1.4049   -3.4110 H   0  0  0  0  0  0  0  0  0  0  0  0
   10.1974   -0.9957    2.5837 H   0  0  0  0  0  0  0  0  0  0  0  0
   11.6445    0.0024    2.8468 H   0  0  0  0  0  0  0  0  0  0  0  0
   11.7265   -1.7512    3.0432 H   0  0  0  0  0  0  0  0  0  0  0  0
   14.5758   -2.9126   -0.4012 H   0  0  0  0  0  0  0  0  0  0  0  0
   -8.7703    0.0930   -0.9238 H   0  0  0  0  0  0  0  0  0  0  0  0
    8.9852    1.5480    0.6930 H   0  0  0  0  0  0  0  0  0  0  0  0
  -11.3394   -0.9475    2.6247 H   0  0  0  0  0  0  0  0  0  0  0  0
  -10.1223    0.3257    2.2981 H   0  0  0  0  0  0  0  0  0  0  0  0
  -11.7339    0.7691    2.7679 H   0  0  0  0  0  0  0  0  0  0  0  0
  -15.3935    0.4460   -1.6648 H   0  0  0  0  0  0  0  0  0  0  0  0
   -9.5961   -1.8473    1.3121 H   0  0  0  0  0  0  0  0  0  0  0  0
    5.7049   -0.8177   -0.9128 H   0  0  0  0  0  0  0  0  0  0  0  0
    7.2265   -0.7969   -1.7843 H   0  0  0  0  0  0  0  0  0  0  0  0
    7.0861   -1.6504   -0.2272 H   0  0  0  0  0  0  0  0  0  0  0  0
    6.8581    2.3145    0.9091 H   0  0  0  0  0  0  0  0  0  0  0  0
   -6.3644   -3.4103    0.5314 H   0  0  0  0  0  0  0  0  0  0  0  0
   -7.1386   -3.2353    2.1285 H   0  0  0  0  0  0  0  0  0  0  0  0
   -8.0785   -3.6797    0.6966 H   0  0  0  0  0  0  0  0  0  0  0  0
   -6.7613    0.3351    0.5119 H   0  0  0  0  0  0  0  0  0  0  0  0
    4.4723    0.7070   -0.2386 H   0  0  0  0  0  0  0  0  0  0  0  0
   -4.8412   -1.9869    1.0548 H   0  0  0  0  0  0  0  0  0  0  0  0
    4.7351    3.3626    1.2706 H   0  0  0  0  0  0  0  0  0  0  0  0
   -4.3535    0.9624    0.5199 H   0  0  0  0  0  0  0  0  0  0  0  0
    1.9801    4.5050    1.3174 H   0  0  0  0  0  0  0  0  0  0  0  0
    1.4794    4.0515   -0.3341 H   0  0  0  0  0  0  0  0  0  0  0  0
    3.0912    4.6549   -0.0509 H   0  0  0  0  0  0  0  0  0  0  0  0
    2.3264    0.6173    1.0014 H   0  0  0  0  0  0  0  0  0  0  0  0
   -2.1377    1.6922    0.5373 H   0  0  0  0  0  0  0  0  0  0  0  0
   -2.6778   -2.3934    0.2866 H   0  0  0  0  0  0  0  0  0  0  0  0
   -1.2383   -1.9479    1.1717 H   0  0  0  0  0  0  0  0  0  0  0  0
   -2.7420   -2.1100    2.0503 H   0  0  0  0  0  0  0  0  0  0  0  0
    0.0295    2.6392    0.4868 H   0  0  0  0  0  0  0  0  0  0  0  0
    0.1337   -0.3666    1.0344 H   0  0  0  0  0  0  0  0  0  0  0  0
  1  6  1  0  0  0  0
  1 69  1  0  0  0  0
  2 13  1  0  0  0  0
  2 75  1  0  0  0  0
  3  4  1  0  0  0  0
  3  5  1  0  0  0  0
  3  9  1  0  0  0  0
  3 10  1  0  0  0  0
  4  7  1  0  0  0  0
  4 15  1  0  0  0  0
  4 43  1  1  0  0  0
  5  6  1  0  0  0  0
  5 44  1  0  0  0  0
  5 45  1  0  0  0  0
  6 12  1  0  0  0  0
  6 46  1  6  0  0  0
  7 12  2  0  0  0  0
  7 20  1  0  0  0  0
  8 11  1  0  0  0  0
  8 14  1  0  0  0  0
  8 18  1  0  0  0  0
  8 19  1  0  0  0  0
  9 47  1  0  0  0  0
  9 48  1  0  0  0  0
  9 49  1  0  0  0  0
 10 50  1  0  0  0  0
 10 51  1  0  0  0  0
 10 52  1  0  0  0  0
 11 13  1  0  0  0  0
 11 53  1  0  0  0  0
 11 54  1  0  0  0  0
 12 55  1  0  0  0  0
 13 16  1  0  0  0  0
 13 56  1  6  0  0  0
 14 17  2  0  0  0  0
 14 22  1  0  0  0  0
 15 21  2  0  0  0  0
 15 57  1  0  0  0  0
 16 17  1  0  0  0  0
 16 58  1  0  0  0  0
 16 59  1  0  0  0  0
 17 23  1  0  0  0  0
 18 60  1  0  0  0  0
 18 61  1  0  0  0  0
 18 62  1  0  0  0  0
 19 63  1  0  0  0  0
 19 64  1  0  0  0  0
 19 65  1  0  0  0  0
 20 66  1  0  0  0  0
 20 67  1  0  0  0  0
 20 68  1  0  0  0  0
 21 24  1  0  0  0  0
 21 71  1  0  0  0  0
 22 25  2  0  0  0  0
 22 70  1  0  0  0  0
 23 72  1  0  0  0  0
 23 73  1  0  0  0  0
 23 74  1  0  0  0  0
 24 26  1  0  0  0  0
 24 28  2  0  0  0  0
 25 27  1  0  0  0  0
 25 76  1  0  0  0  0
 26 77  1  0  0  0  0
 26 78  1  0  0  0  0
 26 79  1  0  0  0  0
 27 29  1  0  0  0  0
 27 30  2  0  0  0  0
 28 31  1  0  0  0  0
 28 80  1  0  0  0  0
 29 81  1  0  0  0  0
 29 82  1  0  0  0  0
 29 83  1  0  0  0  0
 30 32  1  0  0  0  0
 30 84  1  0  0  0  0
 31 33  2  0  0  0  0
 31 85  1  0  0  0  0
 32 35  2  0  0  0  0
 32 86  1  0  0  0  0
 33 34  1  0  0  0  0
 33 87  1  0  0  0  0
 34 37  1  0  0  0  0
 34 38  2  0  0  0  0
 35 36  1  0  0  0  0
 35 88  1  0  0  0  0
 36 39  2  0  0  0  0
 36 40  1  0  0  0  0
 37 89  1  0  0  0  0
 37 90  1  0  0  0  0
 37 91  1  0  0  0  0
 38 41  1  0  0  0  0
 38 92  1  0  0  0  0
 39 42  1  0  0  0  0
 39 93  1  0  0  0  0
 40 94  1  0  0  0  0
 40 95  1  0  0  0  0
 40 96  1  0  0  0  0
 41 42  2  0  0  0  0
 41 97  1  0  0  0  0
 42 98  1  0  0  0  0
M  END
>  <PUBCHEM_COMPOUND_CID>
5281243

>  <PUBCHEM_CONFORMER_RMSD>
1.2

>  <PUBCHEM_CONFORMER_DIVERSEORDER>
4
89
95
1
101
8
109
60
44
21
70
48
77
88
22
154
80
86
36
49
72
12
121
132
5
7
115
50
25
61
16
30
108
79
122
52
9
66
142
45
67
139
133
156
131
97
83
92
43
73
129
29
2
90
138
155
145
117
114
91
19
149
11
62
24
81
65
134
58
137
144
100
33
3
42
71
118
94
119
128
76
124
87
63
54
130
41
136
107
38
120
47
34
112
20
113
148
27
75
37
78
141
143
55
104
99
17
51
126
18
105
10
96
146
26
13
147
59
93
68
110
64
125
111
151
31
85
23
123
74
28
46
14
106
116
39
102
82
103
150
153
6
84
135
15
98
140
32
40
152
56
69
127
35
57
53

>  <PUBCHEM_MMFF94_PARTIAL_CHARGES>
52
1 -0.68
12 -0.29
13 0.28
14 -0.14
15 -0.29
16 0.14
17 -0.28
2 -0.68
20 0.14
21 -0.15
22 -0.15
23 0.14
24 -0.14
25 -0.15
26 0.14
27 -0.14
28 -0.15
29 0.14
30 -0.15
31 -0.15
32 -0.15
33 -0.15
34 -0.14
35 -0.15
36 -0.14
37 0.14
38 -0.15
39 -0.15
4 0.28
40 0.14
41 -0.15
42 -0.15
55 0.15
57 0.15
6 0.42
69 0.4
7 -0.28
70 0.15
71 0.15
75 0.4
76 0.15
8 0.14
80 0.15
84 0.15
85 0.15
86 0.15
87 0.15
88 0.15
92 0.15
93 0.15
97 0.15
98 0.15

>  <PUBCHEM_EFFECTIVE_ROTOR_COUNT>
11.6

>  <PUBCHEM_PHARMACOPHORE_FEATURES>
12
1 1 acceptor
1 1 donor
1 2 acceptor
1 2 donor
1 26 hydrophobe
1 29 hydrophobe
1 37 hydrophobe
1 40 hydrophobe
3 3 9 10 hydrophobe
3 8 18 19 hydrophobe
6 3 4 5 6 7 12 rings
6 8 11 13 14 16 17 rings

>  <PUBCHEM_HEAVY_ATOM_COUNT>
42

>  <PUBCHEM_ATOM_DEF_STEREO_COUNT>
3

>  <PUBCHEM_ATOM_UDEF_STEREO_COUNT>
0

>  <PUBCHEM_BOND_DEF_STEREO_COUNT>
9

>  <PUBCHEM_BOND_UDEF_STEREO_COUNT>
0

>  <PUBCHEM_ISOTOPIC_ATOM_COUNT>
0

>  <PUBCHEM_COMPONENT_COUNT>
1

>  <PUBCHEM_CACTVS_TAUTO_COUNT>
1

>  <PUBCHEM_CONFORMER_ID>
005095DB00000004

>  <PUBCHEM_MMFF94_ENERGY>
109.6982

>  <PUBCHEM_FEATURE_SELFOVERLAP>
60.899

>  <PUBCHEM_SHAPE_FINGERPRINT>
11409948 8 10592044665393230609
11478447 183 17675926504446744900
11828042 206 17749954474793333476
12013929 2 18261110794520651929
12559415 86 17603301532154488717
12559415 90 16774081778667453497
14251920 17 8718828678182898913
15343295 29 18343585128457929649
16728433 110 18342740763425523296
16992610 120 16081087095448452657
20737093 207 16845566540385100639
21102433 48 17060621100880763070
3092352 35 17989204881393621903
3991529 128 11097854095126152192
57303763 176 18201725021092110297

>  <PUBCHEM_SHAPE_MULTIPOLES>
852.6
88.28
2.58
1.97
6.03
0.89
0.88
-29.94
35.84
-4.87
-0.54
2.12
-0.22
1.82

>  <PUBCHEM_SHAPE_SELFOVERLAP>
1729.043

>  <PUBCHEM_SHAPE_VOLUME>
495.6

>  <PUBCHEM_COORDINATE_TYPE>
2
5
10

$$$$
5281426
 OpenBabel10062414423D

 18 19  0  0  0  0  0  0  0  0999 V2000
   -1.1951    1.1738   -0.0006 O   0  0  0  0  0  0  0  0  0  0  0  0
    3.5888    1.1462    0.0005 O   0  0  0  0  0  0  0  0  0  0  0  0
   -3.4855    1.1684    0.0010 O   0  0  0  0  0  0  0  0  0  0  0  0
   -0.0069   -0.9506   -0.0001 C   0  0  0  0  0  0  0  0  0  0  0  0
    0.0098    0.4417   -0.0003 C   0  0  0  0  0  0  0  0  0  0  0  0
    1.2077   -1.6402    0.0000 C   0  0  0  0  0  0  0  0  0  0  0  0
    1.2035    1.1605   -0.0003 C   0  0  0  0  0  0  0  0  0  0  0  0
   -1.2880   -1.6360    0.0001 C   0  0  0  0  0  0  0  0  0  0  0  0
    2.4105    0.4648    0.0001 C   0  0  0  0  0  0  0  0  0  0  0  0
    2.4130   -0.9321    0.0001 C   0  0  0  0  0  0  0  0  0  0  0  0
   -2.4248   -0.9355    0.0001 C   0  0  0  0  0  0  0  0  0  0  0  0
   -2.4331    0.5392   -0.0006 C   0  0  0  0  0  0  0  0  0  0  0  0
    1.2315   -2.7271    0.0002 H   0  0  0  0  0  0  0  0  0  0  0  0
    1.1937    2.2465   -0.0004 H   0  0  0  0  0  0  0  0  0  0  0  0
   -1.3051   -2.7203    0.0005 H   0  0  0  0  0  0  0  0  0  0  0  0
    3.3500   -1.4832    0.0003 H   0  0  0  0  0  0  0  0  0  0  0  0
   -3.3848   -1.4401    0.0004 H   0  0  0  0  0  0  0  0  0  0  0  0
    4.3223    0.5073    0.0008 H   0  0  0  0  0  0  0  0  0  0  0  0
  1  5  1  0  0  0  0
  1 12  1  0  0  0  0
  2  9  1  0  0  0  0
  2 18  1  0  0  0  0
  3 12  2  0  0  0  0
  4  5  2  0  0  0  0
  4  6  1  0  0  0  0
  4  8  1  0  0  0  0
  5  7  1  0  0  0  0
  6 10  2  0  0  0  0
  6 13  1  0  0  0  0
  7  9  2  0  0  0  0
  7 14  1  0  0  0  0
  8 11  2  0  0  0  0
  8 15  1  0  0  0  0
  9 10  1  0  0  0  0
 10 16  1  0  0  0  0
 11 12  1  0  0  0  0
 11 17  1  0  0  0  0
M  END
>  <PUBCHEM_COMPOUND_CID>
5281426

>  <PUBCHEM_CONFORMER_RMSD>
0.4

>  <PUBCHEM_CONFORMER_DIVERSEORDER>
1

>  <PUBCHEM_MMFF94_PARTIAL_CHARGES>
18
1 -0.23
10 -0.15
11 -0.14
12 0.71
13 0.15
14 0.15
15 0.15
16 0.15
17 0.15
18 0.45
2 -0.53
3 -0.57
4 0.03
5 0.08
6 -0.15
7 -0.15
8 -0.18
9 0.08

>  <PUBCHEM_EFFECTIVE_ROTOR_COUNT>
0

>  <PUBCHEM_PHARMACOPHORE_FEATURES>
4
1 2 donor
1 3 acceptor
6 1 4 5 8 11 12 rings
6 4 5 6 7 9 10 rings

>  <PUBCHEM_HEAVY_ATOM_COUNT>
12

>  <PUBCHEM_ATOM_DEF_STEREO_COUNT>
0

>  <PUBCHEM_ATOM_UDEF_STEREO_COUNT>
0

>  <PUBCHEM_BOND_DEF_STEREO_COUNT>
0

>  <PUBCHEM_BOND_UDEF_STEREO_COUNT>
0

>  <PUBCHEM_ISOTOPIC_ATOM_COUNT>
0

>  <PUBCHEM_COMPONENT_COUNT>
1

>  <PUBCHEM_CACTVS_TAUTO_COUNT>
3

>  <PUBCHEM_CONFORMER_ID>
0050969200000001

>  <PUBCHEM_MMFF94_ENERGY>
36.5695

>  <PUBCHEM_FEATURE_SELFOVERLAP>
20.325

>  <PUBCHEM_SHAPE_FINGERPRINT>
10608611 8 18410853265400230824
12491281 212 18341906159797765225
12932764 1 17489021668711251274
13380535 21 18410587179296486574
13380535 76 18410570686616925094
13897977 150 18411133645292019933
14325111 11 18410573993741463680
14897335 6 18411412908307637255
15219456 202 18411987952836437378
15775835 57 18410859862490882121
16945 1 18266741277117059078
17844478 74 18114476625273737011
20871998 184 18128542746094871599
21040471 1 18410574015295525382
21501502 16 18410568491893892102
23235685 24 18410568487593500652
23402655 69 18270387314290106925
23463225 33 18334571326746099714
23552423 10 18333450962582791542
23559900 14 18272656775378701532
2748010 2 18410860962007940718
528886 8 18411132545711638594
53812653 166 18343015623044256952
63268167 104 18412830157273499041
6333449 129 18340766039285782223
7364860 26 18270117894996750614

>  <PUBCHEM_SHAPE_MULTIPOLES>
229.35
4.8
1.75
0.59
0.06
0.32
0
-1.55
0
0.06
0
-0.01
0.03
0

>  <PUBCHEM_SHAPE_SELFOVERLAP>
502.286

>  <PUBCHEM_SHAPE_VOLUME>
124

>  <PUBCHEM_COORDINATE_TYPE>
2
5
10

$$$$
5281672
 OpenBabel10062414423D

 33 35  0  0  0  0  0  0  0  0999 V2000
   -0.5112   -0.8516    0.0014 O   0  0  0  0  0  0  0  0  0  0  0  0
    0.5098    2.6902   -0.0303 O   0  0  0  0  0  0  0  0  0  0  0  0
   -4.6299    1.7027   -0.0030 O   0  0  0  0  0  0  0  0  0  0  0  0
   -2.2683    2.8249   -0.0160 O   0  0  0  0  0  0  0  0  0  0  0  0
   -4.7210   -3.0446    0.0125 O   0  0  0  0  0  0  0  0  0  0  0  0
    4.4047   -0.4639   -2.3940 O   0  0  0  0  0  0  0  0  0  0  0  0
    4.4231   -0.4021    2.3948 O   0  0  0  0  0  0  0  0  0  0  0  0
    5.7837   -0.6789   -0.0020 O   0  0  0  0  0  0  0  0  0  0  0  0
   -2.5391    0.4822   -0.0002 C   0  0  0  0  0  0  0  0  0  0  0  0
    0.2438    0.3107    0.0081 C   0  0  0  0  0  0  0  0  0  0  0  0
   -1.8779   -0.7439    0.0033 C   0  0  0  0  0  0  0  0  0  0  0  0
    1.6949    0.0535    0.0046 C   0  0  0  0  0  0  0  0  0  0  0  0
   -0.2700    1.5542   -0.0039 C   0  0  0  0  0  0  0  0  0  0  0  0
   -1.7436    1.7195   -0.0069 C   0  0  0  0  0  0  0  0  0  0  0  0
   -3.9354    0.5310    0.0007 C   0  0  0  0  0  0  0  0  0  0  0  0
   -2.6099   -1.9315    0.0071 C   0  0  0  0  0  0  0  0  0  0  0  0
    2.3867   -0.0544    1.2114 C   0  0  0  0  0  0  0  0  0  0  0  0
    2.3774   -0.0847   -1.2044 C   0  0  0  0  0  0  0  0  0  0  0  0
   -4.0042   -1.8872    0.0084 C   0  0  0  0  0  0  0  0  0  0  0  0
   -4.6654   -0.6583    0.0053 C   0  0  0  0  0  0  0  0  0  0  0  0
    3.7504   -0.3303   -1.2065 C   0  0  0  0  0  0  0  0  0  0  0  0
    3.7598   -0.2997    1.2093 C   0  0  0  0  0  0  0  0  0  0  0  0
    4.4418   -0.4378    0.0004 C   0  0  0  0  0  0  0  0  0  0  0  0
   -2.0971   -2.8901    0.0093 H   0  0  0  0  0  0  0  0  0  0  0  0
    1.8625    0.0512    2.1588 H   0  0  0  0  0  0  0  0  0  0  0  0
    1.8458   -0.0031   -2.1501 H   0  0  0  0  0  0  0  0  0  0  0  0
   -5.7523   -0.6219    0.0060 H   0  0  0  0  0  0  0  0  0  0  0  0
    1.4491    2.4455   -0.0291 H   0  0  0  0  0  0  0  0  0  0  0  0
   -4.0228    2.4583   -0.0016 H   0  0  0  0  0  0  0  0  0  0  0  0
   -5.6693   -2.8284    0.0128 H   0  0  0  0  0  0  0  0  0  0  0  0
    5.3451   -0.6299   -2.2080 H   0  0  0  0  0  0  0  0  0  0  0  0
    5.3658   -0.2143    2.2587 H   0  0  0  0  0  0  0  0  0  0  0  0
    6.0450   -1.0814    0.8419 H   0  0  0  0  0  0  0  0  0  0  0  0
  1 10  1  0  0  0  0
  1 11  1  0  0  0  0
  2 13  1  0  0  0  0
  2 28  1  0  0  0  0
  3 15  1  0  0  0  0
  3 29  1  0  0  0  0
  4 14  2  0  0  0  0
  5 19  1  0  0  0  0
  5 30  1  0  0  0  0
  6 21  1  0  0  0  0
  6 31  1  0  0  0  0
  7 22  1  0  0  0  0
  7 32  1  0  0  0  0
  8 23  1  0  0  0  0
  8 33  1  0  0  0  0
  9 11  1  0  0  0  0
  9 14  1  0  0  0  0
  9 15  2  0  0  0  0
 10 12  1  0  0  0  0
 10 13  2  0  0  0  0
 11 16  2  0  0  0  0
 12 17  2  0  0  0  0
 12 18  1  0  0  0  0
 13 14  1  0  0  0  0
 15 20  1  0  0  0  0
 16 19  1  0  0  0  0
 16 24  1  0  0  0  0
 17 22  1  0  0  0  0
 17 25  1  0  0  0  0
 18 21  2  0  0  0  0
 18 26  1  0  0  0  0
 19 20  2  0  0  0  0
 20 27  1  0  0  0  0
 21 23  1  0  0  0  0
 22 23  2  0  0  0  0
M  END
>  <PUBCHEM_COMPOUND_CID>
5281672

>  <PUBCHEM_CONFORMER_RMSD>
0.6

>  <PUBCHEM_CONFORMER_DIVERSEORDER>
1
2

>  <PUBCHEM_MMFF94_PARTIAL_CHARGES>
33
1 -0.16
10 0.05
11 0.08
12 0.03
13 0.09
14 0.47
15 0.08
16 -0.15
17 -0.15
18 -0.15
19 0.08
2 -0.53
20 -0.15
21 0.08
22 0.08
23 0.08
24 0.15
25 0.15
26 0.15
27 0.15
28 0.45
29 0.45
3 -0.53
30 0.45
31 0.45
32 0.45
33 0.45
4 -0.57
5 -0.53
6 -0.53
7 -0.53
8 -0.53
9 0.09

>  <PUBCHEM_EFFECTIVE_ROTOR_COUNT>
1

>  <PUBCHEM_PHARMACOPHORE_FEATURES>
11
1 1 acceptor
1 2 donor
1 3 donor
1 4 acceptor
1 5 donor
1 6 donor
1 7 donor
1 8 donor
6 1 9 10 11 13 14 rings
6 12 17 18 21 22 23 rings
6 9 11 15 16 19 20 rings

>  <PUBCHEM_HEAVY_ATOM_COUNT>
23

>  <PUBCHEM_ATOM_DEF_STEREO_COUNT>
0

>  <PUBCHEM_ATOM_UDEF_STEREO_COUNT>
0

>  <PUBCHEM_BOND_DEF_STEREO_COUNT>
0

>  <PUBCHEM_BOND_UDEF_STEREO_COUNT>
0

>  <PUBCHEM_ISOTOPIC_ATOM_COUNT>
0

>  <PUBCHEM_COMPONENT_COUNT>
1

>  <PUBCHEM_CACTVS_TAUTO_COUNT>
516

>  <PUBCHEM_CONFORMER_ID>
0050978800000001

>  <PUBCHEM_MMFF94_ENERGY>
70.1388

>  <PUBCHEM_FEATURE_SELFOVERLAP>
55.862

>  <PUBCHEM_SHAPE_FINGERPRINT>
10062212 137 18186519908501798547
10319926 262 18198603485773097786
10411042 1 18266460000579509435
11046707 91 18409449210995564455
11370993 144 16773527585434617699
11796584 16 18126008157640724950
12236239 1 17749111063237261334
12390115 104 17913218564047082769
12553582 1 18408609184091020115
12616971 3 17240202101556732514
12788726 201 18187930517211311697
13140716 1 18339923822575807505
13675066 3 17775282789599270323
13760787 5 16805322192976049615
13782708 43 17775291521954021342
14386348 63 17846500314062399886
15196674 1 18410575132113772293
15961568 22 18337949121204808708
16752209 62 18334575737187090731
17138139 8 17533211096977537954
17349148 13 17603863386569204226
17804303 29 18413107273254302817
18222031 100 18271242845620719591
18681886 176 18335424599762399302
19141452 34 17703791465994378639
200 152 16588022390222101596
20028762 73 17985547990797208807
20511986 3 17676474034866394788
20600515 1 18341603798295601329
21033648 29 17203315693947359666
21033650 10 18045807618909597788
21065201 7 18342459192914403214
21267235 1 18336552702745150891
2297311 6 18341902891317090206
23175994 123 17275108336238329489
23366157 5 17898009285376015365
23402539 116 18409444778141026342
23557571 272 18202002080108833488
23559900 14 18271531879855649654
2838139 119 14835294130611578897
3004659 81 18113898294567882902
335352 9 18410291433272021301
474 4 16951705768799772796
5104073 3 18340488975609977913
573450 72 18259979353588934962
602551 16 18412541016144434722
67856867 119 18187931741772934700
6823239 73 18273217508654251016
7495541 125 18131631201701337944
77492 1 17676210135127746980
7970288 3 18337952419138454771
9709674 26 18120937467320452411

>  <PUBCHEM_SHAPE_MULTIPOLES>
426.37
11.32
2.29
1.26
4.03
0.54
0
-4.76
0.04
-3.77
-0.01
2.62
-0.24
0.05

>  <PUBCHEM_SHAPE_SELFOVERLAP>
957.962

>  <PUBCHEM_SHAPE_VOLUME>
223.3

>  <PUBCHEM_COORDINATE_TYPE>
2
5
10

$$$$
5429
 OpenBabel10062414423D

 21 22  0  0  0  0  0  0  0  0999 V2000
    1.0169    2.5593    0.0007 O   0  0  0  0  0  0  0  0  0  0  0  0
   -3.2233    0.7239    0.0003 O   0  0  0  0  0  0  0  0  0  0  0  0
    2.0485   -0.2897   -0.0002 N   0  0  0  0  0  0  0  0  0  0  0  0
   -1.4263   -0.7738   -0.0001 N   0  0  0  0  0  0  0  0  0  0  0  0
   -1.0941    1.6022   -0.0002 N   0  0  0  0  0  0  0  0  0  0  0  0
    0.6813   -2.0534    0.0002 N   0  0  0  0  0  0  0  0  0  0  0  0
    0.7793    0.2110    0.0000 C   0  0  0  0  0  0  0  0  0  0  0  0
   -0.0389   -0.8897    0.0003 C   0  0  0  0  0  0  0  0  0  0  0  0
    0.3079    1.5577   -0.0005 C   0  0  0  0  0  0  0  0  0  0  0  0
   -2.0066    0.5172   -0.0004 C   0  0  0  0  0  0  0  0  0  0  0  0
    1.9378   -1.6570    0.0000 C   0  0  0  0  0  0  0  0  0  0  0  0
   -2.2674   -1.9623    0.0000 C   0  0  0  0  0  0  0  0  0  0  0  0
    3.2847    0.4546   -0.0001 C   0  0  0  0  0  0  0  0  0  0  0  0
    2.8008   -2.3089    0.0001 H   0  0  0  0  0  0  0  0  0  0  0  0
   -1.5100    2.5297    0.0001 H   0  0  0  0  0  0  0  0  0  0  0  0
   -2.0485   -2.5526    0.8950 H   0  0  0  0  0  0  0  0  0  0  0  0
   -2.0476   -2.5534   -0.8943 H   0  0  0  0  0  0  0  0  0  0  0  0
   -3.3287   -1.7011   -0.0007 H   0  0  0  0  0  0  0  0  0  0  0  0
    3.3153    1.0747   -0.8993 H   0  0  0  0  0  0  0  0  0  0  0  0
    3.3154    1.0741    0.8995 H   0  0  0  0  0  0  0  0  0  0  0  0
    4.1291   -0.2394   -0.0004 H   0  0  0  0  0  0  0  0  0  0  0  0
  1  9  2  0  0  0  0
  2 10  2  0  0  0  0
  3  7  1  0  0  0  0
  3 11  1  0  0  0  0
  3 13  1  0  0  0  0
  4  8  1  0  0  0  0
  4 10  1  0  0  0  0
  4 12  1  0  0  0  0
  5  9  1  0  0  0  0
  5 10  1  0  0  0  0
  5 15  1  0  0  0  0
  6  8  1  0  0  0  0
  6 11  2  0  0  0  0
  7  8  2  0  0  0  0
  7  9  1  0  0  0  0
 11 14  1  0  0  0  0
 12 16  1  0  0  0  0
 12 17  1  0  0  0  0
 12 18  1  0  0  0  0
 13 19  1  0  0  0  0
 13 20  1  0  0  0  0
 13 21  1  0  0  0  0
M  END
>  <PUBCHEM_COMPOUND_CID>
5429

>  <PUBCHEM_CONFORMER_RMSD>
0.4

>  <PUBCHEM_CONFORMER_DIVERSEORDER>
1

>  <PUBCHEM_MMFF94_PARTIAL_CHARGES>
15
1 -0.57
10 0.69
11 0.04
12 0.3
13 0.26
14 0.15
15 0.37
2 -0.57
3 0.05
4 -0.42
5 -0.49
6 -0.57
7 -0.24
8 0.29
9 0.71

>  <PUBCHEM_EFFECTIVE_ROTOR_COUNT>
0

>  <PUBCHEM_PHARMACOPHORE_FEATURES>
6
1 1 acceptor
1 2 acceptor
1 5 donor
3 3 6 11 cation
5 3 6 7 8 11 rings
6 4 5 7 8 9 10 rings

>  <PUBCHEM_HEAVY_ATOM_COUNT>
13

>  <PUBCHEM_ATOM_DEF_STEREO_COUNT>
0

>  <PUBCHEM_ATOM_UDEF_STEREO_COUNT>
0

>  <PUBCHEM_BOND_DEF_STEREO_COUNT>
0

>  <PUBCHEM_BOND_UDEF_STEREO_COUNT>
0

>  <PUBCHEM_ISOTOPIC_ATOM_COUNT>
0

>  <PUBCHEM_COMPONENT_COUNT>
1

>  <PUBCHEM_CACTVS_TAUTO_COUNT>
3

>  <PUBCHEM_CONFORMER_ID>
0000153500000001

>  <PUBCHEM_MMFF94_ENERGY>
21.7734

>  <PUBCHEM_FEATURE_SELFOVERLAP>
30.562

>  <PUBCHEM_SHAPE_FINGERPRINT>
10967382 1 18410575050308634791
11132069 177 18410849967329317976
11206711 2 18336828713842816991
12382932 28 18411417284837198562
12423570 1 10933641856949270793
12524768 44 18198628735142129103
16945 1 18410855438732615493
193761 8 17978510063425417733
20588541 1 18410294670553846381
21040471 1 16609134911866691874
21501502 16 18265054819764530141
22802520 49 18057906653140570670
2334 1 18050287269250829261
23402655 69 18268977731851385845
23463225 33 18335134263809337906
23552423 10 18263644133418863773
23559900 14 18342748438378613308
241688 4 17906172854131781081
2748010 2 18194116554228058445
5084963 1 17986679383301531922
528886 8 18411414012151188178
53812653 166 18342452664448088544
63268167 104 18411139095663443561
66348 1 18411698755481894930

>  <PUBCHEM_SHAPE_MULTIPOLES>
235.87
3.94
2.41
0.57
0.13
0.19
0
-0.13
0
0.01
0
-0.02
-0.02
0

>  <PUBCHEM_SHAPE_SELFOVERLAP>
510.074

>  <PUBCHEM_SHAPE_VOLUME>
130.9

>  <PUBCHEM_COORDINATE_TYPE>
2
5
10

$$$$
54670067
 OpenBabel10062414423D

 20 20  0  0  1  0  0  0  0  0999 V2000
    0.0932   -1.1066    0.6445 O   0  0  0  0  0  0  0  0  0  0  0  0
   -1.3436    0.0892   -1.3863 O   0  0  0  0  0  0  0  0  0  0  0  0
    0.8392    2.3901    0.2844 O   0  0  0  0  0  0  0  0  0  0  0  0
   -3.8929   -0.2040   -0.3326 O   0  0  0  0  0  0  0  0  0  0  0  0
    3.0220    0.5695   -0.6056 O   0  0  0  0  0  0  0  0  0  0  0  0
    1.9915   -2.1560   -0.1376 O   0  0  0  0  0  0  0  0  0  0  0  0
   -0.3397    0.2618    0.7853 C   0  0  2  0  0  0  0  0  0  0  0  0
   -1.6059    0.4585   -0.0330 C   0  0  2  0  0  0  0  0  0  0  0  0
    0.8212    1.0265    0.2887 C   0  0  0  0  0  0  0  0  0  0  0  0
   -2.7464   -0.4082    0.4863 C   0  0  0  0  0  0  0  0  0  0  0  0
    1.8077    0.2273   -0.1049 C   0  0  0  0  0  0  0  0  0  0  0  0
    1.3536   -1.1481    0.1108 C   0  0  0  0  0  0  0  0  0  0  0  0
   -0.5154    0.4609    1.8484 H   0  0  0  0  0  0  0  0  0  0  0  0
   -1.9162    1.5092   -0.0432 H   0  0  0  0  0  0  0  0  0  0  0  0
   -2.4989   -1.4735    0.4351 H   0  0  0  0  0  0  0  0  0  0  0  0
   -3.0013   -0.1462    1.5179 H   0  0  0  0  0  0  0  0  0  0  0  0
   -1.0999   -0.8522   -1.3986 H   0  0  0  0  0  0  0  0  0  0  0  0
    0.0039    2.6957    0.6780 H   0  0  0  0  0  0  0  0  0  0  0  0
   -4.6023   -0.7644    0.0257 H   0  0  0  0  0  0  0  0  0  0  0  0
    3.5024   -0.2572   -0.7856 H   0  0  0  0  0  0  0  0  0  0  0  0
  1  7  1  0  0  0  0
  1 12  1  0  0  0  0
  2  8  1  0  0  0  0
  2 17  1  0  0  0  0
  3  9  1  0  0  0  0
  3 18  1  0  0  0  0
  4 10  1  0  0  0  0
  4 19  1  0  0  0  0
  5 11  1  0  0  0  0
  5 20  1  0  0  0  0
  6 12  2  0  0  0  0
  7  8  1  0  0  0  0
  7  9  1  0  0  0  0
  7 13  1  1  0  0  0
  8 10  1  0  0  0  0
  8 14  1  1  0  0  0
  9 11  2  0  0  0  0
 10 15  1  0  0  0  0
 10 16  1  0  0  0  0
 11 12  1  0  0  0  0
M  END
>  <PUBCHEM_COMPOUND_CID>
54670067

>  <PUBCHEM_CONFORMER_RMSD>
0.6

>  <PUBCHEM_CONFORMER_DIVERSEORDER>
1
7
9
3
6
2
8
4
5

>  <PUBCHEM_MMFF94_PARTIAL_CHARGES>
16
1 -0.43
10 0.28
11 0.09
12 0.71
17 0.4
18 0.45
19 0.4
2 -0.68
20 0.45
3 -0.53
4 -0.68
5 -0.53
6 -0.57
7 0.42
8 0.28
9 -0.06

>  <PUBCHEM_EFFECTIVE_ROTOR_COUNT>
2.4

>  <PUBCHEM_PHARMACOPHORE_FEATURES>
8
1 2 acceptor
1 2 donor
1 3 donor
1 4 acceptor
1 4 donor
1 5 donor
1 6 acceptor
5 1 7 9 11 12 rings

>  <PUBCHEM_HEAVY_ATOM_COUNT>
12

>  <PUBCHEM_ATOM_DEF_STEREO_COUNT>
2

>  <PUBCHEM_ATOM_UDEF_STEREO_COUNT>
0

>  <PUBCHEM_BOND_DEF_STEREO_COUNT>
0

>  <PUBCHEM_BOND_UDEF_STEREO_COUNT>
0

>  <PUBCHEM_ISOTOPIC_ATOM_COUNT>
0

>  <PUBCHEM_COMPONENT_COUNT>
1

>  <PUBCHEM_CACTVS_TAUTO_COUNT>
8

>  <PUBCHEM_CONFORMER_ID>
034232F300000001

>  <PUBCHEM_MMFF94_ENERGY>
16.7505

>  <PUBCHEM_FEATURE_SELFOVERLAP>
40.607

>  <PUBCHEM_SHAPE_FINGERPRINT>
11031198 65 18334866042584660156
12423570 1 16593986278693052658
12897270 3 18335984259085166881
12932764 1 17703782622482239737
16945 1 18411985796810132881
20201158 50 18334579048712332067
20645477 70 18338230475906097847
23235685 24 18335699498310911688
23402655 69 18410567367424688213
23552423 10 18118410540101524762
2748010 2 18266736874838799764
29004967 10 18411417289142604872
5084963 1 17458339766689163273
528886 8 18340204188891487632
68250623 7 18054244132304839336

>  <PUBCHEM_SHAPE_MULTIPOLES>
211.74
4.26
1.67
0.86
3.09
0.11
0.12
-0.61
0.74
-1.24
-0.14
0.21
0.02
0.04

>  <PUBCHEM_SHAPE_SELFOVERLAP>
438.346

>  <PUBCHEM_SHAPE_VOLUME>
120.9

>  <PUBCHEM_COORDINATE_TYPE>
2
5
10

$$$$
637542
 OpenBabel10062414423D

 20 20  0  0  0  0  0  0  0  0999 V2000
    4.4366    0.3797   -0.0759 O   0  0  0  0  0  0  0  0  0  0  0  0
   -4.2176    1.1412   -0.2835 O   0  0  0  0  0  0  0  0  0  0  0  0
   -3.9236   -1.0626    0.2280 O   0  0  0  0  0  0  0  0  0  0  0  0
    0.3430   -0.2893    0.0700 C   0  0  0  0  0  0  0  0  0  0  0  0
    0.8431    1.0061    0.2016 C   0  0  0  0  0  0  0  0  0  0  0  0
    1.2186   -1.3600   -0.1104 C   0  0  0  0  0  0  0  0  0  0  0  0
    2.2189    1.2308    0.1525 C   0  0  0  0  0  0  0  0  0  0  0  0
    2.5944   -1.1352   -0.1593 C   0  0  0  0  0  0  0  0  0  0  0  0
    3.0945    0.1602   -0.0279 C   0  0  0  0  0  0  0  0  0  0  0  0
   -1.0915   -0.5239    0.1204 C   0  0  0  0  0  0  0  0  0  0  0  0
   -2.0440    0.4110   -0.0928 C   0  0  0  0  0  0  0  0  0  0  0  0
   -3.4721    0.0420   -0.0227 C   0  0  0  0  0  0  0  0  0  0  0  0
    0.2012    1.8672    0.3634 H   0  0  0  0  0  0  0  0  0  0  0  0
    0.8474   -2.3766   -0.2162 H   0  0  0  0  0  0  0  0  0  0  0  0
    2.5967    2.2441    0.2604 H   0  0  0  0  0  0  0  0  0  0  0  0
    3.2716   -1.9731   -0.3004 H   0  0  0  0  0  0  0  0  0  0  0  0
   -1.3902   -1.5472    0.3384 H   0  0  0  0  0  0  0  0  0  0  0  0
   -1.8139    1.4413   -0.3394 H   0  0  0  0  0  0  0  0  0  0  0  0
    4.6043    1.3318    0.0314 H   0  0  0  0  0  0  0  0  0  0  0  0
   -5.1792    0.9496   -0.2489 H   0  0  0  0  0  0  0  0  0  0  0  0
  1  9  1  0  0  0  0
  1 19  1  0  0  0  0
  2 12  1  0  0  0  0
  2 20  1  0  0  0  0
  3 12  2  0  0  0  0
  4  5  2  0  0  0  0
  4  6  1  0  0  0  0
  4 10  1  0  0  0  0
  5  7  1  0  0  0  0
  5 13  1  0  0  0  0
  6  8  2  0  0  0  0
  6 14  1  0  0  0  0
  7  9  2  0  0  0  0
  7 15  1  0  0  0  0
  8  9  1  0  0  0  0
  8 16  1  0  0  0  0
 10 11  2  0  0  0  0
 10 17  1  0  0  0  0
 11 12  1  0  0  0  0
 11 18  1  0  0  0  0
M  END
>  <PUBCHEM_COMPOUND_CID>
637542

>  <PUBCHEM_CONFORMER_RMSD>
0.6

>  <PUBCHEM_CONFORMER_DIVERSEORDER>
1

>  <PUBCHEM_MMFF94_PARTIAL_CHARGES>
20
1 -0.53
10 -0.18
11 -0.14
12 0.71
13 0.15
14 0.15
15 0.15
16 0.15
17 0.15
18 0.15
19 0.45
2 -0.65
20 0.5
3 -0.57
4 0.03
5 -0.15
6 -0.15
7 -0.15
8 -0.15
9 0.08

>  <PUBCHEM_EFFECTIVE_ROTOR_COUNT>
2

>  <PUBCHEM_PHARMACOPHORE_FEATURES>
5
1 1 donor
1 2 acceptor
1 3 acceptor
3 2 3 12 anion
6 4 5 6 7 8 9 rings

>  <PUBCHEM_HEAVY_ATOM_COUNT>
12

>  <PUBCHEM_ATOM_DEF_STEREO_COUNT>
0

>  <PUBCHEM_ATOM_UDEF_STEREO_COUNT>
0

>  <PUBCHEM_BOND_DEF_STEREO_COUNT>
1

>  <PUBCHEM_BOND_UDEF_STEREO_COUNT>
0

>  <PUBCHEM_ISOTOPIC_ATOM_COUNT>
0

>  <PUBCHEM_COMPONENT_COUNT>
1

>  <PUBCHEM_CACTVS_TAUTO_COUNT>
2

>  <PUBCHEM_CONFORMER_ID>
0009BA6600000001

>  <PUBCHEM_MMFF94_ENERGY>
29.8559

>  <PUBCHEM_FEATURE_SELFOVERLAP>
25.427

>  <PUBCHEM_SHAPE_FINGERPRINT>
10219947 1 18060139816832396606
10608611 8 18409163333561610193
11062470 55 18410856551060404490
11401426 45 18273490183084339632
11471102 20 18412540985842026796
12032990 46 18412550898573934758
12932764 1 17203598290216365625
13380535 76 18410294735152987866
13922767 16 18342734135224842328
14144814 61 18271810094630286075
14325111 11 18410573994100101371
14415576 193 18408608079973299268
14911166 2 18342466954368550876
14993402 34 17346878948819131084
15442244 35 17981328884853215121
18186145 218 18338240371024944259
190213 19 17704073988536472419
200 152 18060132146532326919
20201158 50 18409732850166443451
20279233 1 18186526501192318875
20606313 2 18412262826738421564
20645477 70 18270960124966525143
21119208 17 17775847908421537925
23402539 116 17748818626965999820
23402655 69 18343016662468527509
4990 188 18059585689110956326
528886 8 18341326764736353122

>  <PUBCHEM_SHAPE_MULTIPOLES>
229.35
7.65
1.32
0.61
4.22
0.07
0
-0.81
-0.34
-0.22
0
0
0
0.26

>  <PUBCHEM_SHAPE_SELFOVERLAP>
478.674

>  <PUBCHEM_SHAPE_VOLUME>
130.3

>  <PUBCHEM_COORDINATE_TYPE>
2
5
10

$$$$
637566
 OpenBabel10062414423D

 29 28  0  0  0  0  0  0  0  0999 V2000
    4.2204   -1.7134   -0.1687 O   0  0  0  0  0  0  0  0  0  0  0  0
    0.0505    0.6359    0.6315 C   0  0  0  0  0  0  0  0  0  0  0  0
   -0.9380    0.7573   -0.5357 C   0  0  0  0  0  0  0  0  0  0  0  0
    1.5036    0.6658    0.2060 C   0  0  0  0  0  0  0  0  0  0  0  0
   -2.3721    0.7110   -0.0860 C   0  0  0  0  0  0  0  0  0  0  0  0
   -3.1967   -0.3525   -0.0459 C   0  0  0  0  0  0  0  0  0  0  0  0
    1.9487    1.9407   -0.4639 C   0  0  0  0  0  0  0  0  0  0  0  0
    2.3869   -0.3304    0.4126 C   0  0  0  0  0  0  0  0  0  0  0  0
   -4.6158   -0.1965    0.4324 C   0  0  0  0  0  0  0  0  0  0  0  0
   -2.8258   -1.7551   -0.4351 C   0  0  0  0  0  0  0  0  0  0  0  0
    3.8383   -0.3625    0.0528 C   0  0  0  0  0  0  0  0  0  0  0  0
   -0.1211    1.4494    1.3486 H   0  0  0  0  0  0  0  0  0  0  0  0
   -0.1534   -0.2950    1.1772 H   0  0  0  0  0  0  0  0  0  0  0  0
   -0.7375   -0.0230   -1.2788 H   0  0  0  0  0  0  0  0  0  0  0  0
   -0.7884    1.7082   -1.0622 H   0  0  0  0  0  0  0  0  0  0  0  0
   -2.7618    1.6728    0.2458 H   0  0  0  0  0  0  0  0  0  0  0  0
    1.5131    2.8068    0.0468 H   0  0  0  0  0  0  0  0  0  0  0  0
    1.6202    1.9571   -1.5079 H   0  0  0  0  0  0  0  0  0  0  0  0
    3.0314    2.0908   -0.4436 H   0  0  0  0  0  0  0  0  0  0  0  0
    2.0179   -1.2125    0.9354 H   0  0  0  0  0  0  0  0  0  0  0  0
   -4.7895   -0.8207    1.3152 H   0  0  0  0  0  0  0  0  0  0  0  0
   -4.8543    0.8370    0.7048 H   0  0  0  0  0  0  0  0  0  0  0  0
   -5.3153   -0.5020   -0.3527 H   0  0  0  0  0  0  0  0  0  0  0  0
   -3.4147   -2.0746   -1.3011 H   0  0  0  0  0  0  0  0  0  0  0  0
   -1.7688   -1.8643   -0.6903 H   0  0  0  0  0  0  0  0  0  0  0  0
   -3.0285   -2.4424    0.3932 H   0  0  0  0  0  0  0  0  0  0  0  0
    4.4500    0.0386    0.8663 H   0  0  0  0  0  0  0  0  0  0  0  0
    4.0531    0.1869   -0.8668 H   0  0  0  0  0  0  0  0  0  0  0  0
    4.1513   -2.1849    0.6792 H   0  0  0  0  0  0  0  0  0  0  0  0
  1 11  1  0  0  0  0
  1 29  1  0  0  0  0
  2  3  1  0  0  0  0
  2  4  1  0  0  0  0
  2 12  1  0  0  0  0
  2 13  1  0  0  0  0
  3  5  1  0  0  0  0
  3 14  1  0  0  0  0
  3 15  1  0  0  0  0
  4  7  1  0  0  0  0
  4  8  2  0  0  0  0
  5  6  2  0  0  0  0
  5 16  1  0  0  0  0
  6  9  1  0  0  0  0
  6 10  1  0  0  0  0
  7 17  1  0  0  0  0
  7 18  1  0  0  0  0
  7 19  1  0  0  0  0
  8 11  1  0  0  0  0
  8 20  1  0  0  0  0
  9 21  1  0  0  0  0
  9 22  1  0  0  0  0
  9 23  1  0  0  0  0
 10 24  1  0  0  0  0
 10 25  1  0  0  0  0
 10 26  1  0  0  0  0
 11 27  1  0  0  0  0
 11 28  1  0  0  0  0
M  END
>  <PUBCHEM_COMPOUND_CID>
637566

>  <PUBCHEM_CONFORMER_RMSD>
0.6

>  <PUBCHEM_CONFORMER_DIVERSEORDER>
2
29
7
67
64
26
14
31
24
62
53
19
55
27
15
72
69
4
33
52
54
70
39
34
8
21
1
13
42
61
38
45
23
20
6
51
10
30
75
18
63
37
57
73
32
25
9
65
56
43
22
74
46
28
5
68
47
58
71
41
66
50
3
35
59
36
40
76
44
48
16
17
49
11
60
12

>  <PUBCHEM_MMFF94_PARTIAL_CHARGES>
14
1 -0.68
10 0.14
11 0.42
16 0.15
2 0.14
20 0.15
29 0.4
3 0.14
4 -0.28
5 -0.29
6 -0.28
7 0.14
8 -0.29
9 0.14

>  <PUBCHEM_EFFECTIVE_ROTOR_COUNT>
4

>  <PUBCHEM_PHARMACOPHORE_FEATURES>
5
1 1 acceptor
1 1 donor
1 7 hydrophobe
3 6 9 10 hydrophobe
4 2 3 4 5 hydrophobe

>  <PUBCHEM_HEAVY_ATOM_COUNT>
11

>  <PUBCHEM_ATOM_DEF_STEREO_COUNT>
0

>  <PUBCHEM_ATOM_UDEF_STEREO_COUNT>
0

>  <PUBCHEM_BOND_DEF_STEREO_COUNT>
1

>  <PUBCHEM_BOND_UDEF_STEREO_COUNT>
0

>  <PUBCHEM_ISOTOPIC_ATOM_COUNT>
0

>  <PUBCHEM_COMPONENT_COUNT>
1

>  <PUBCHEM_CACTVS_TAUTO_COUNT>
1

>  <PUBCHEM_CONFORMER_ID>
0009BA7E00000002

>  <PUBCHEM_MMFF94_ENERGY>
10.2409

>  <PUBCHEM_FEATURE_SELFOVERLAP>
25.377

>  <PUBCHEM_SHAPE_FINGERPRINT>
12032990 46 18410292467689265216
124424 183 17418089910751742753
12932764 1 17313650620969955717
14251710 61 18334861644728416867
14252887 29 18202284667703425050
14325111 11 18337670927170811081
14350558 41 18272938210851042630
15477762 27 18335421279314978788
177051 138 18342173383972663121
17834072 8 18041269994672523957
17834074 16 18410293614045015883
18186145 218 17168135784709407673
19422 9 18340488984120517527
20279233 1 15482677896384554821
20281475 54 18270116941429095247
20300324 65 11530484437139234115
20645477 70 18334851757797889599
20671657 53 18334297539618599468
21119208 17 18186516601223895733
21293036 1 14417854739119616577
22169311 14 17346312730553859675
22485316 2 18343298192963119840
23402539 116 16515959273230654140
328317 168 9223223040381823619
42 15 17846499218581904307
548570 60 8934994867601374542
58051976 100 18186796938266615629
7364860 26 18339359798617051576

>  <PUBCHEM_SHAPE_MULTIPOLES>
220.51
8.56
1.65
0.75
0.84
0.2
0.01
3.72
0.3
-0.9
-0.31
0.09
-0.05
-0.22

>  <PUBCHEM_SHAPE_SELFOVERLAP>
405.881

>  <PUBCHEM_SHAPE_VOLUME>
140.6

>  <PUBCHEM_COORDINATE_TYPE>
2
5
10

$$$$
643820
 OpenBabel10062414423D

 29 28  0  0  0  0  0  0  0  0999 V2000
    2.2829    2.2939    0.1611 O   0  0  0  0  0  0  0  0  0  0  0  0
    0.7430   -1.2854   -1.1271 C   0  0  0  0  0  0  0  0  0  0  0  0
   -0.7822   -1.1707   -1.2483 C   0  0  0  0  0  0  0  0  0  0  0  0
    1.2660   -1.0169    0.2686 C   0  0  0  0  0  0  0  0  0  0  0  0
   -1.2911    0.1931   -0.8715 C   0  0  0  0  0  0  0  0  0  0  0  0
   -2.2352    0.5065    0.0359 C   0  0  0  0  0  0  0  0  0  0  0  0
    0.7839   -1.9745    1.3283 C   0  0  0  0  0  0  0  0  0  0  0  0
    2.1243   -0.0300    0.5926 C   0  0  0  0  0  0  0  0  0  0  0  0
   -2.6184    1.9439    0.2687 C   0  0  0  0  0  0  0  0  0  0  0  0
   -2.9751   -0.4780    0.8961 C   0  0  0  0  0  0  0  0  0  0  0  0
    2.7020    1.0181   -0.3043 C   0  0  0  0  0  0  0  0  0  0  0  0
    1.0407   -2.3019   -1.4160 H   0  0  0  0  0  0  0  0  0  0  0  0
    1.2030   -0.6309   -1.8727 H   0  0  0  0  0  0  0  0  0  0  0  0
   -1.2562   -1.9717   -0.6761 H   0  0  0  0  0  0  0  0  0  0  0  0
   -1.0570   -1.3522   -2.2952 H   0  0  0  0  0  0  0  0  0  0  0  0
   -0.8360    1.0083   -1.4336 H   0  0  0  0  0  0  0  0  0  0  0  0
    0.9671   -3.0084    1.0177 H   0  0  0  0  0  0  0  0  0  0  0  0
   -0.2865   -1.8492    1.5124 H   0  0  0  0  0  0  0  0  0  0  0  0
    1.2987   -1.8271    2.2840 H   0  0  0  0  0  0  0  0  0  0  0  0
    2.4412    0.0501    1.6319 H   0  0  0  0  0  0  0  0  0  0  0  0
   -2.4319    2.2213    1.3114 H   0  0  0  0  0  0  0  0  0  0  0  0
   -2.0522    2.6354   -0.3642 H   0  0  0  0  0  0  0  0  0  0  0  0
   -3.6818    2.0923    0.0538 H   0  0  0  0  0  0  0  0  0  0  0  0
   -4.0547   -0.3642    0.7505 H   0  0  0  0  0  0  0  0  0  0  0  0
   -2.7336   -1.5209    0.6856 H   0  0  0  0  0  0  0  0  0  0  0  0
   -2.7507   -0.2950    1.9522 H   0  0  0  0  0  0  0  0  0  0  0  0
    2.4198    0.9296   -1.3539 H   0  0  0  0  0  0  0  0  0  0  0  0
    3.7945    0.9811   -0.2512 H   0  0  0  0  0  0  0  0  0  0  0  0
    1.3165    2.3410    0.0598 H   0  0  0  0  0  0  0  0  0  0  0  0
  1 11  1  0  0  0  0
  1 29  1  0  0  0  0
  2  3  1  0  0  0  0
  2  4  1  0  0  0  0
  2 12  1  0  0  0  0
  2 13  1  0  0  0  0
  3  5  1  0  0  0  0
  3 14  1  0  0  0  0
  3 15  1  0  0  0  0
  4  7  1  0  0  0  0
  4  8  2  0  0  0  0
  5  6  2  0  0  0  0
  5 16  1  0  0  0  0
  6  9  1  0  0  0  0
  6 10  1  0  0  0  0
  7 17  1  0  0  0  0
  7 18  1  0  0  0  0
  7 19  1  0  0  0  0
  8 11  1  0  0  0  0
  8 20  1  0  0  0  0
  9 21  1  0  0  0  0
  9 22  1  0  0  0  0
  9 23  1  0  0  0  0
 10 24  1  0  0  0  0
 10 25  1  0  0  0  0
 10 26  1  0  0  0  0
 11 27  1  0  0  0  0
 11 28  1  0  0  0  0
M  END
>  <PUBCHEM_COMPOUND_CID>
643820

>  <PUBCHEM_CONFORMER_RMSD>
0.6

>  <PUBCHEM_CONFORMER_DIVERSEORDER>
4
19
78
81
73
36
17
53
43
71
76
25
9
8
52
80
7
16
59
55
79
24
56
64
47
65
57
77
6
44
20
13
23
69
75
18
35
3
70
39
14
29
33
67
63
66
49
54
62
34
61
48
72
38
15
40
74
21
5
68
46
2
37
60
22
28
31
32
58
1
27
11
45
26
30
50
41
10
42
12
51

>  <PUBCHEM_MMFF94_PARTIAL_CHARGES>
14
1 -0.68
10 0.14
11 0.42
16 0.15
2 0.14
20 0.15
29 0.4
3 0.14
4 -0.28
5 -0.29
6 -0.28
7 0.14
8 -0.29
9 0.14

>  <PUBCHEM_EFFECTIVE_ROTOR_COUNT>
4

>  <PUBCHEM_PHARMACOPHORE_FEATURES>
5
1 1 acceptor
1 1 donor
1 7 hydrophobe
3 6 9 10 hydrophobe
4 2 3 4 5 hydrophobe

>  <PUBCHEM_HEAVY_ATOM_COUNT>
11

>  <PUBCHEM_ATOM_DEF_STEREO_COUNT>
0

>  <PUBCHEM_ATOM_UDEF_STEREO_COUNT>
0

>  <PUBCHEM_BOND_DEF_STEREO_COUNT>
1

>  <PUBCHEM_BOND_UDEF_STEREO_COUNT>
0

>  <PUBCHEM_ISOTOPIC_ATOM_COUNT>
0

>  <PUBCHEM_COMPONENT_COUNT>
1

>  <PUBCHEM_CACTVS_TAUTO_COUNT>
1

>  <PUBCHEM_CONFORMER_ID>
0009D2EC00000004

>  <PUBCHEM_MMFF94_ENERGY>
8.2745

>  <PUBCHEM_FEATURE_SELFOVERLAP>
25.391

>  <PUBCHEM_SHAPE_FINGERPRINT>
10857977 72 16805042925839350103
12696612 119 18337669702809635276
12932764 1 17897174515916668071
13549 16 10519166792932009323
13618510 140 18272089344629925061
14251711 518 18342164587906456448
14648413 74 17983870990349618159
15775835 57 18271246130943653224
17834069 17 18260542359434927334
17841504 4 18043804277999850283
19837323 101 17630882914001045318
19973954 147 18198911301283080449
20379382 53 17896875448421960798
20539784 86 17970069950230377875
20653085 51 18057894726137318894
20828058 43 18409452496286791331
21028194 46 18273217520995404986
21061003 4 17318141971440568274
21130352 189 17622724219694751487
21524375 3 18339920532234953228
21922407 69 18190998214740124355
22802520 49 15698007378591097218
22959321 28 18412267267708199433
430814 3 18343014519137214054

>  <PUBCHEM_SHAPE_MULTIPOLES>
220.51
4.47
2.19
1.24
1.42
0.77
0.09
2.23
-0.94
-0.75
-0.31
0.06
-0.63
-0.19

>  <PUBCHEM_SHAPE_SELFOVERLAP>
406.969

>  <PUBCHEM_SHAPE_VOLUME>
140.1

>  <PUBCHEM_COORDINATE_TYPE>
2
5
10

$$$$
65064
 OpenBabel10062414423D

 51 54  0  0  1  0  0  0  0  0999 V2000
   -1.1184   -1.7626   -0.6440 O   0  0  0  0  0  0  0  0  0  0  0  0
   -0.1331    0.4824    0.8673 O   0  0  0  0  0  0  0  0  0  0  0  0
    2.5210   -3.2952    2.1631 O   0  0  0  0  0  0  0  0  0  0  0  0
    2.0819   -4.8223   -2.3220 O   0  0  0  0  0  0  0  0  0  0  0  0
   -3.5970    2.1428   -2.5003 O   0  0  0  0  0  0  0  0  0  0  0  0
   -6.2428    0.6618    1.2071 O   0  0  0  0  0  0  0  0  0  0  0  0
    0.7423    1.2802    2.8412 O   0  0  0  0  0  0  0  0  0  0  0  0
   -5.9394    2.2703   -1.0264 O   0  0  0  0  0  0  0  0  0  0  0  0
    3.5656    0.8907   -2.3327 O   0  0  0  0  0  0  0  0  0  0  0  0
    4.1702    4.4957    0.7611 O   0  0  0  0  0  0  0  0  0  0  0  0
    4.8869    3.2061   -1.5821 O   0  0  0  0  0  0  0  0  0  0  0  0
   -0.8111   -0.5999    1.5066 C   0  0  1  0  0  0  0  0  0  0  0  0
   -1.7869   -1.2628    0.5255 C   0  0  1  0  0  0  0  0  0  0  0  0
    0.2157   -1.6291    1.9748 C   0  0  0  0  0  0  0  0  0  0  0  0
    0.6953   -2.4762    0.8270 C   0  0  0  0  0  0  0  0  0  0  0  0
   -2.8983   -0.3172    0.1095 C   0  0  0  0  0  0  0  0  0  0  0  0
    0.0089   -2.5017   -0.3936 C   0  0  0  0  0  0  0  0  0  0  0  0
    1.8382   -3.2722    0.9823 C   0  0  0  0  0  0  0  0  0  0  0  0
    0.4826   -3.2792   -1.4536 C   0  0  0  0  0  0  0  0  0  0  0  0
   -4.0753   -0.2578    0.8538 C   0  0  0  0  0  0  0  0  0  0  0  0
   -2.7405    0.4901   -1.0159 C   0  0  0  0  0  0  0  0  0  0  0  0
    2.3018   -4.0589   -0.0727 C   0  0  0  0  0  0  0  0  0  0  0  0
    1.6266   -4.0590   -1.2913 C   0  0  0  0  0  0  0  0  0  0  0  0
    0.7801    1.1393    1.6286 C   0  0  0  0  0  0  0  0  0  0  0  0
   -3.7624    1.3591   -1.3981 C   0  0  0  0  0  0  0  0  0  0  0  0
   -5.0972    0.6112    0.4717 C   0  0  0  0  0  0  0  0  0  0  0  0
   -4.9408    1.4198   -0.6542 C   0  0  0  0  0  0  0  0  0  0  0  0
    1.8678    1.6861    0.7788 C   0  0  0  0  0  0  0  0  0  0  0  0
    2.5086    2.8414    1.1770 C   0  0  0  0  0  0  0  0  0  0  0  0
    2.2042    1.0223   -0.3835 C   0  0  0  0  0  0  0  0  0  0  0  0
    3.2259    1.5363   -1.1821 C   0  0  0  0  0  0  0  0  0  0  0  0
    3.5302    3.3556    0.3784 C   0  0  0  0  0  0  0  0  0  0  0  0
    3.8890    2.7029   -0.8011 C   0  0  0  0  0  0  0  0  0  0  0  0
   -1.3595   -0.2005    2.3699 H   0  0  0  0  0  0  0  0  0  0  0  0
   -2.2604   -2.1304    1.0086 H   0  0  0  0  0  0  0  0  0  0  0  0
   -0.2664   -2.3024    2.6956 H   0  0  0  0  0  0  0  0  0  0  0  0
    1.0724   -1.1732    2.4788 H   0  0  0  0  0  0  0  0  0  0  0  0
   -0.0490   -3.2780   -2.4024 H   0  0  0  0  0  0  0  0  0  0  0  0
   -4.1947   -0.8867    1.7328 H   0  0  0  0  0  0  0  0  0  0  0  0
   -1.8217    0.4570   -1.5962 H   0  0  0  0  0  0  0  0  0  0  0  0
    3.1908   -4.6736    0.0470 H   0  0  0  0  0  0  0  0  0  0  0  0
    3.2793   -3.8988    2.0822 H   0  0  0  0  0  0  0  0  0  0  0  0
    1.4943   -4.7015   -3.0877 H   0  0  0  0  0  0  0  0  0  0  0  0
    2.2258    3.3506    2.0943 H   0  0  0  0  0  0  0  0  0  0  0  0
    1.7038    0.1087   -0.6881 H   0  0  0  0  0  0  0  0  0  0  0  0
   -2.7224    1.9664   -2.8874 H   0  0  0  0  0  0  0  0  0  0  0  0
   -6.1727    0.0348    1.9473 H   0  0  0  0  0  0  0  0  0  0  0  0
   -5.6542    2.7476   -1.8250 H   0  0  0  0  0  0  0  0  0  0  0  0
    3.0026    0.1041   -2.4339 H   0  0  0  0  0  0  0  0  0  0  0  0
    3.7900    4.8064    1.6006 H   0  0  0  0  0  0  0  0  0  0  0  0
    5.2279    4.0146   -1.1615 H   0  0  0  0  0  0  0  0  0  0  0  0
  1 13  1  0  0  0  0
  1 17  1  0  0  0  0
  2 12  1  0  0  0  0
  2 24  1  0  0  0  0
  3 18  1  0  0  0  0
  3 42  1  0  0  0  0
  4 23  1  0  0  0  0
  4 43  1  0  0  0  0
  5 25  1  0  0  0  0
  5 46  1  0  0  0  0
  6 26  1  0  0  0  0
  6 47  1  0  0  0  0
  7 24  2  0  0  0  0
  8 27  1  0  0  0  0
  8 48  1  0  0  0  0
  9 31  1  0  0  0  0
  9 49  1  0  0  0  0
 10 32  1  0  0  0  0
 10 50  1  0  0  0  0
 11 33  1  0  0  0  0
 11 51  1  0  0  0  0
 12 13  1  0  0  0  0
 12 14  1  0  0  0  0
 12 34  1  1  0  0  0
 13 16  1  0  0  0  0
 13 35  1  1  0  0  0
 14 15  1  0  0  0  0
 14 36  1  0  0  0  0
 14 37  1  0  0  0  0
 15 17  1  0  0  0  0
 15 18  2  0  0  0  0
 16 20  2  0  0  0  0
 16 21  1  0  0  0  0
 17 19  2  0  0  0  0
 18 22  1  0  0  0  0
 19 23  1  0  0  0  0
 19 38  1  0  0  0  0
 20 26  1  0  0  0  0
 20 39  1  0  0  0  0
 21 25  2  0  0  0  0
 21 40  1  0  0  0  0
 22 23  2  0  0  0  0
 22 41  1  0  0  0  0
 24 28  1  0  0  0  0
 25 27  1  0  0  0  0
 26 27  2  0  0  0  0
 28 29  2  0  0  0  0
 28 30  1  0  0  0  0
 29 32  1  0  0  0  0
 29 44  1  0  0  0  0
 30 31  2  0  0  0  0
 30 45  1  0  0  0  0
 31 33  1  0  0  0  0
 32 33  2  0  0  0  0
M  END
>  <PUBCHEM_COMPOUND_CID>
65064

>  <PUBCHEM_CONFORMER_RMSD>
0.8

>  <PUBCHEM_CONFORMER_DIVERSEORDER>
1
13
12
24
28
22
38
23
41
37
36
40
4
43
8
33
20
42
9
39
30
10
7
15
35
31
34
19
16
27
6
21
2
17
3
32
25
5
29
18
14
11
26

>  <PUBCHEM_MMFF94_PARTIAL_CHARGES>
47
1 -0.36
10 -0.53
11 -0.53
12 0.28
13 0.42
14 0.14
15 -0.14
16 -0.14
17 0.08
18 0.08
19 -0.15
2 -0.43
20 -0.15
21 -0.15
22 -0.15
23 0.08
24 0.63
25 0.08
26 0.08
27 0.08
28 0.09
29 -0.15
3 -0.53
30 -0.15
31 0.08
32 0.08
33 0.08
38 0.15
39 0.15
4 -0.53
40 0.15
41 0.15
42 0.45
43 0.45
44 0.15
45 0.15
46 0.45
47 0.45
48 0.45
49 0.45
5 -0.53
50 0.45
51 0.45
6 -0.53
7 -0.57
8 -0.53
9 -0.53

>  <PUBCHEM_EFFECTIVE_ROTOR_COUNT>
4.8

>  <PUBCHEM_PHARMACOPHORE_FEATURES>
14
1 1 acceptor
1 10 donor
1 11 donor
1 3 donor
1 4 donor
1 5 donor
1 6 donor
1 7 acceptor
1 8 donor
1 9 donor
6 1 12 13 14 15 17 rings
6 15 17 18 19 22 23 rings
6 16 20 21 25 26 27 rings
6 28 29 30 31 32 33 rings

>  <PUBCHEM_HEAVY_ATOM_COUNT>
33

>  <PUBCHEM_ATOM_DEF_STEREO_COUNT>
2

>  <PUBCHEM_ATOM_UDEF_STEREO_COUNT>
0

>  <PUBCHEM_BOND_DEF_STEREO_COUNT>
0

>  <PUBCHEM_BOND_UDEF_STEREO_COUNT>
0

>  <PUBCHEM_ISOTOPIC_ATOM_COUNT>
0

>  <PUBCHEM_COMPONENT_COUNT>
1

>  <PUBCHEM_CACTVS_TAUTO_COUNT>
1000

>  <PUBCHEM_CONFORMER_ID>
0000FE2800000001

>  <PUBCHEM_MMFF94_ENERGY>
98.4273

>  <PUBCHEM_FEATURE_SELFOVERLAP>
71.101

>  <PUBCHEM_SHAPE_FINGERPRINT>
10165383 225 18339375174710455457
10305334 12 17195961211605010584
10369192 42 18188782772056780285
10675989 125 18272381875142814456
10721379 63 18266187140410051698
107951 10 17970922274022559906
11477941 20 17335086472512560622
11488393 25 18263650575796019993
11578080 2 17680185990680413739
11607047 403 17749965478225050571
12160290 23 17545853367852152675
12422481 6 17756383203025880328
12741549 16 17692506950298016865
12788726 201 9868708929453656333
133893 2 18265349312591820009
13681431 1 18125714582854580243
140371 6 18198346143542922395
151778 21 18410005546520261713
15210252 30 17615686232996408911
15463212 79 17830436638159283792
16988056 13 17833529224992468085
17899979 19 18187652337434508666
1813 80 17840862971971177995
18785283 64 18338228276560744723
20600515 1 17542212472245620354
21033648 29 18196659720481761096
21304303 282 17623254545451255438
21365058 113 17983022141840671895
21641784 216 17624148100681650630
21756936 100 17315068003127893776
21857420 4 17472963017956762724
21927370 108 17620216246589241290
23419403 2 17613772185264322043
23559900 14 18118673328398015683
24893989 43 15524525085779519924
25019877 29 17838070543201746239
26353 1 17765145073295297574
3298306 158 18409173233482222530
3411729 13 18333733498811751593
376196 1 18261673769826937736
4394409 98 18339375123671936974
44802255 64 17827665822045132460
46194498 28 18264763269300900239
5081480 168 18046344128880983853
5219985 13 18190743226705552005
5252454 2 18340763840700636481
5265222 85 18044678609604845036
6823239 73 17460314352824850733

>  <PUBCHEM_SHAPE_MULTIPOLES>
614.56
9.83
6.2
2.24
13.03
4.37
-0.06
-11.73
-2.72
-9.57
-1.71
-0.69
0.27
1.01

>  <PUBCHEM_SHAPE_SELFOVERLAP>
1370.679

>  <PUBCHEM_SHAPE_VOLUME>
324

>  <PUBCHEM_COORDINATE_TYPE>
2
5
10

$$$$
6508
 OpenBabel10062414423D

 25 25  0  0  1  0  0  0  0  0999 V2000
   -1.0059    0.6980    1.4748 O   0  0  0  0  0  0  0  0  0  0  0  0
    1.9533   -2.2704    0.3647 O   0  0  0  0  0  0  0  0  0  0  0  0
    1.3534    2.0435    0.5511 O   0  0  0  0  0  0  0  0  0  0  0  0
    3.2527    0.1947   -0.2700 O   0  0  0  0  0  0  0  0  0  0  0  0
   -2.5129   -0.7764   -1.3689 O   0  0  0  0  0  0  0  0  0  0  0  0
   -3.3733    0.1223    0.5410 O   0  0  0  0  0  0  0  0  0  0  0  0
   -0.9794    0.0864    0.1909 C   0  0  2  0  0  0  0  0  0  0  0  0
   -0.1946   -1.2259    0.2469 C   0  0  0  0  0  0  0  0  0  0  0  0
   -0.3827    1.0662   -0.8299 C   0  0  0  0  0  0  0  0  0  0  0  0
    1.3029   -1.0039    0.4706 C   0  0  2  0  0  0  0  0  0  0  0  0
    1.1226    1.2830   -0.6353 C   0  0  2  0  0  0  0  0  0  0  0  0
    1.8803   -0.0475   -0.5754 C   0  0  1  0  0  0  0  0  0  0  0  0
   -2.4164   -0.1699   -0.1605 C   0  0  0  0  0  0  0  0  0  0  0  0
   -0.3299   -1.8066   -0.6755 H   0  0  0  0  0  0  0  0  0  0  0  0
   -0.5791   -1.8677    1.0511 H   0  0  0  0  0  0  0  0  0  0  0  0
   -0.8921    2.0349   -0.7413 H   0  0  0  0  0  0  0  0  0  0  0  0
   -0.5449    0.7031   -1.8524 H   0  0  0  0  0  0  0  0  0  0  0  0
    1.4993   -0.6299    1.4820 H   0  0  0  0  0  0  0  0  0  0  0  0
    1.5159    1.8898   -1.4585 H   0  0  0  0  0  0  0  0  0  0  0  0
    1.8555   -0.5341   -1.5586 H   0  0  0  0  0  0  0  0  0  0  0  0
   -1.3045    0.0363    2.1219 H   0  0  0  0  0  0  0  0  0  0  0  0
    1.5789   -2.8506    1.0495 H   0  0  0  0  0  0  0  0  0  0  0  0
    0.9636    1.5668    1.3025 H   0  0  0  0  0  0  0  0  0  0  0  0
    3.6015    0.7969   -0.9491 H   0  0  0  0  0  0  0  0  0  0  0  0
   -3.4453   -0.9538   -1.6165 H   0  0  0  0  0  0  0  0  0  0  0  0
  1 21  1  0  0  0  0
  2 10  1  0  0  0  0
  2 22  1  0  0  0  0
  3 11  1  0  0  0  0
  3 23  1  0  0  0  0
  4 12  1  0  0  0  0
  4 24  1  0  0  0  0
  5 13  1  0  0  0  0
  5 25  1  0  0  0  0
  6 13  2  0  0  0  0
  7  1  1  1  0  0  0
  7  8  1  0  0  0  0
  7  9  1  0  0  0  0
  7 13  1  0  0  0  0
  8 10  1  0  0  0  0
  8 14  1  0  0  0  0
  8 15  1  0  0  0  0
  9 11  1  0  0  0  0
  9 16  1  0  0  0  0
  9 17  1  0  0  0  0
 10 12  1  0  0  0  0
 10 18  1  1  0  0  0
 11 12  1  0  0  0  0
 11 19  1  6  0  0  0
 12 20  1  6  0  0  0
M  END
>  <PUBCHEM_COMPOUND_CID>
6508

>  <PUBCHEM_CONFORMER_RMSD>
0.6

>  <PUBCHEM_CONFORMER_DIVERSEORDER>
1
4
8
7
6
3
2
5

>  <PUBCHEM_MMFF94_PARTIAL_CHARGES>
16
1 -0.68
10 0.28
11 0.28
12 0.28
13 0.66
2 -0.68
21 0.4
22 0.4
23 0.4
24 0.4
25 0.5
3 -0.68
4 -0.68
5 -0.65
6 -0.57
7 0.34

>  <PUBCHEM_EFFECTIVE_ROTOR_COUNT>
2.2

>  <PUBCHEM_PHARMACOPHORE_FEATURES>
12
1 1 acceptor
1 1 donor
1 2 acceptor
1 2 donor
1 3 acceptor
1 3 donor
1 4 acceptor
1 4 donor
1 5 acceptor
1 6 acceptor
3 5 6 13 anion
6 7 8 9 10 11 12 rings

>  <PUBCHEM_HEAVY_ATOM_COUNT>
13

>  <PUBCHEM_ATOM_DEF_STEREO_COUNT>
2

>  <PUBCHEM_ATOM_UDEF_STEREO_COUNT>
0

>  <PUBCHEM_BOND_DEF_STEREO_COUNT>
0

>  <PUBCHEM_BOND_UDEF_STEREO_COUNT>
0

>  <PUBCHEM_ISOTOPIC_ATOM_COUNT>
0

>  <PUBCHEM_COMPONENT_COUNT>
1

>  <PUBCHEM_CACTVS_TAUTO_COUNT>
1

>  <PUBCHEM_CONFORMER_ID>
0000196C00000001

>  <PUBCHEM_MMFF94_ENERGY>
27.9952

>  <PUBCHEM_FEATURE_SELFOVERLAP>
60.985

>  <PUBCHEM_SHAPE_FINGERPRINT>
12423570 1 17620762682413741962
12897270 3 18261386784475816255
12932764 1 18342174475279601773
14128692 85 18201150044258958047
14817 1 9101310776053140960
15775835 57 18410300228236324357
16945 1 18336819870441675151
20201158 50 17894633642796479402
21040471 1 17901956566526338076
23235685 24 17895196652916385740
23419403 2 15369435792004227578
23552423 10 18341327911381708405
241688 4 17973160621766143136
2748010 2 18045210549303239574
29004967 10 18040159508733321761
5084963 1 18263369246758571876
528886 8 18260265265504122137
53812653 166 18336267941680362048
63268167 104 18408606928795177363

>  <PUBCHEM_SHAPE_MULTIPOLES>
232.32
3.98
1.71
1.03
1.2
0.22
0.02
0.41
-0.29
-1.13
0.15
0.41
-0.13
-0.24

>  <PUBCHEM_SHAPE_SELFOVERLAP>
475.101

>  <PUBCHEM_SHAPE_VOLUME>
132.6

>  <PUBCHEM_COORDINATE_TYPE>
2
5
10

$$$$
65084
 OpenBabel10062414423D

 36 38  0  0  1  0  0  0  0  0999 V2000
    0.6130    0.6849   -0.2791 O   0  0  0  0  0  0  0  0  0  0  0  0
   -0.4518   -2.8228    0.2203 O   0  0  0  0  0  0  0  0  0  0  0  0
    4.6330   -1.9417    0.3510 O   0  0  0  0  0  0  0  0  0  0  0  0
    4.8636    2.7664   -0.2961 O   0  0  0  0  0  0  0  0  0  0  0  0
   -3.7928    1.0050    2.4198 O   0  0  0  0  0  0  0  0  0  0  0  0
   -4.7225   -0.0658   -2.1549 O   0  0  0  0  0  0  0  0  0  0  0  0
   -5.5977    0.7907    0.3288 O   0  0  0  0  0  0  0  0  0  0  0  0
    0.3174   -1.6493    0.4617 C   0  0  2  0  0  0  0  0  0  0  0  0
   -0.1431   -0.5214   -0.4723 C   0  0  1  0  0  0  0  0  0  0  0  0
    1.7865   -1.9615    0.1897 C   0  0  0  0  0  0  0  0  0  0  0  0
    2.5907   -0.7036    0.0606 C   0  0  0  0  0  0  0  0  0  0  0  0
   -1.6036   -0.1696   -0.2575 C   0  0  0  0  0  0  0  0  0  0  0  0
    1.9692    0.5275   -0.1751 C   0  0  0  0  0  0  0  0  0  0  0  0
    3.9883   -0.7568    0.1480 C   0  0  0  0  0  0  0  0  0  0  0  0
    2.7327    1.6932   -0.2827 C   0  0  0  0  0  0  0  0  0  0  0  0
   -2.5054   -0.2785   -1.3134 C   0  0  0  0  0  0  0  0  0  0  0  0
   -2.0369    0.2609    0.9945 C   0  0  0  0  0  0  0  0  0  0  0  0
    4.7498    0.4059    0.0284 C   0  0  0  0  0  0  0  0  0  0  0  0
    4.1218    1.6311   -0.1830 C   0  0  0  0  0  0  0  0  0  0  0  0
   -3.3793    0.5843    1.1916 C   0  0  0  0  0  0  0  0  0  0  0  0
   -3.8479    0.0449   -1.1164 C   0  0  0  0  0  0  0  0  0  0  0  0
   -4.2850    0.4762    0.1361 C   0  0  0  0  0  0  0  0  0  0  0  0
    0.2010   -1.3636    1.5144 H   0  0  0  0  0  0  0  0  0  0  0  0
   -0.0113   -0.8357   -1.5177 H   0  0  0  0  0  0  0  0  0  0  0  0
    1.8848   -2.5463   -0.7341 H   0  0  0  0  0  0  0  0  0  0  0  0
    2.1678   -2.5908    1.0034 H   0  0  0  0  0  0  0  0  0  0  0  0
    2.2384    2.6473   -0.4505 H   0  0  0  0  0  0  0  0  0  0  0  0
   -2.1664   -0.6150   -2.2900 H   0  0  0  0  0  0  0  0  0  0  0  0
   -1.3333    0.3578    1.8174 H   0  0  0  0  0  0  0  0  0  0  0  0
   -0.1211   -3.5169    0.8156 H   0  0  0  0  0  0  0  0  0  0  0  0
    5.8340    0.3651    0.0998 H   0  0  0  0  0  0  0  0  0  0  0  0
    5.5919   -1.7825    0.3834 H   0  0  0  0  0  0  0  0  0  0  0  0
    4.2665    3.5205   -0.4403 H   0  0  0  0  0  0  0  0  0  0  0  0
   -3.0311    1.0173    3.0244 H   0  0  0  0  0  0  0  0  0  0  0  0
   -4.2434   -0.3778   -2.9416 H   0  0  0  0  0  0  0  0  0  0  0  0
   -6.0721    0.6555   -0.5098 H   0  0  0  0  0  0  0  0  0  0  0  0
  1  9  1  0  0  0  0
  1 13  1  0  0  0  0
  2  8  1  0  0  0  0
  2 30  1  0  0  0  0
  3 14  1  0  0  0  0
  3 32  1  0  0  0  0
  4 19  1  0  0  0  0
  4 33  1  0  0  0  0
  5 20  1  0  0  0  0
  5 34  1  0  0  0  0
  6 21  1  0  0  0  0
  6 35  1  0  0  0  0
  7 22  1  0  0  0  0
  7 36  1  0  0  0  0
  8  9  1  0  0  0  0
  8 10  1  0  0  0  0
  8 23  1  1  0  0  0
  9 12  1  0  0  0  0
  9 24  1  6  0  0  0
 10 11  1  0  0  0  0
 10 25  1  0  0  0  0
 10 26  1  0  0  0  0
 11 13  1  0  0  0  0
 11 14  2  0  0  0  0
 12 16  2  0  0  0  0
 12 17  1  0  0  0  0
 13 15  2  0  0  0  0
 14 18  1  0  0  0  0
 15 19  1  0  0  0  0
 15 27  1  0  0  0  0
 16 21  1  0  0  0  0
 16 28  1  0  0  0  0
 17 20  2  0  0  0  0
 17 29  1  0  0  0  0
 18 19  2  0  0  0  0
 18 31  1  0  0  0  0
 20 22  1  0  0  0  0
 21 22  2  0  0  0  0
M  END
>  <PUBCHEM_COMPOUND_CID>
65084

>  <PUBCHEM_CONFORMER_RMSD>
0.6

>  <PUBCHEM_CONFORMER_DIVERSEORDER>
1
2
4
6
5
3

>  <PUBCHEM_MMFF94_PARTIAL_CHARGES>
32
1 -0.36
10 0.14
11 -0.14
12 -0.14
13 0.08
14 0.08
15 -0.15
16 -0.15
17 -0.15
18 -0.15
19 0.08
2 -0.68
20 0.08
21 0.08
22 0.08
27 0.15
28 0.15
29 0.15
3 -0.53
30 0.4
31 0.15
32 0.45
33 0.45
34 0.45
35 0.45
36 0.45
4 -0.53
5 -0.53
6 -0.53
7 -0.53
8 0.28
9 0.42

>  <PUBCHEM_EFFECTIVE_ROTOR_COUNT>
1.8

>  <PUBCHEM_PHARMACOPHORE_FEATURES>
11
1 1 acceptor
1 2 acceptor
1 2 donor
1 3 donor
1 4 donor
1 5 donor
1 6 donor
1 7 donor
6 1 8 9 10 11 13 rings
6 11 13 14 15 18 19 rings
6 12 16 17 20 21 22 rings

>  <PUBCHEM_HEAVY_ATOM_COUNT>
22

>  <PUBCHEM_ATOM_DEF_STEREO_COUNT>
2

>  <PUBCHEM_ATOM_UDEF_STEREO_COUNT>
0

>  <PUBCHEM_BOND_DEF_STEREO_COUNT>
0

>  <PUBCHEM_BOND_UDEF_STEREO_COUNT>
0

>  <PUBCHEM_ISOTOPIC_ATOM_COUNT>
0

>  <PUBCHEM_COMPONENT_COUNT>
1

>  <PUBCHEM_CACTVS_TAUTO_COUNT>
99

>  <PUBCHEM_CONFORMER_ID>
0000FE3C00000001

>  <PUBCHEM_MMFF94_ENERGY>
62.6803

>  <PUBCHEM_FEATURE_SELFOVERLAP>
55.863

>  <PUBCHEM_SHAPE_FINGERPRINT>
10411042 1 17760364393008035602
10912923 1 18060136548230330957
11089746 13 17846217804510689672
11471102 20 18335415760339986854
11796584 16 15195015903467496700
12107183 9 17409943431121552971
12236239 1 18059853939925527663
12390115 104 17975992169789206508
12403259 415 17749105569578516269
12616971 3 18272368642321356639
12633257 1 18334848442626378146
13140716 1 18334013934697001322
13583140 156 16733254733593408856
13631057 29 18125431167170239839
13675066 3 17385726910905350268
13760787 5 18411979152448279180
14386348 63 17240489074334292179
14739800 52 17345736612811179232
14848178 96 18196932395429197832
15196674 1 18336264634508357034
15342168 16 18335427905959094813
15375358 24 17458620108047559613
15475509 35 16153696584642492088
15475509 8 17842023017389795878
16988056 13 14675732749332890529
1813 80 17696765363149304046
18186145 218 18410579483142243350
200 152 18343013381308445237
204376 136 18335140920486576066
20612939 158 18410571782355513484
20645477 70 18261385620740398814
21033648 144 18337383941798416044
21033648 29 17458336438131791741
21033650 10 16701484311018024112
21065201 7 15574715759455174427
23184049 59 18333455335144043188
23366157 5 17343803490548633135
23402539 116 17131823257871675205
23559900 14 15864628337121981306
23569943 247 17768821857902944534
335352 9 18408603678628599742
34797466 226 15051729832578599760
4340502 62 18335435547618498667
474 4 18413674603683871978
5104073 3 18261387918827256866
6034566 193 17608947708888704204
633830 44 18200327544957582574
77492 1 17988640757859126155
8272917 22 18340488859176439862
90127 26 17894628128090288996
9981440 41 17123359444757303488

>  <PUBCHEM_SHAPE_MULTIPOLES>
411.66
11.36
2.08
1.28
1.8
0.41
0.12
-4.43
-0.32
-2.94
0.17
2.38
-0.23
-1.01

>  <PUBCHEM_SHAPE_SELFOVERLAP>
910.195

>  <PUBCHEM_SHAPE_VOLUME>
219.6

>  <PUBCHEM_COORDINATE_TYPE>
2
5
10

$$$$
6549
 OpenBabel10062414423D

 29 28  0  0  1  0  0  0  0  0999 V2000
    2.5076   -0.9774   -1.4002 O   0  0  0  0  0  0  0  0  0  0  0  0
    1.8830   -0.4122   -0.2342 C   0  0  1  0  0  0  0  0  0  0  0  0
    0.3689   -0.7150   -0.3439 C   0  0  0  0  0  0  0  0  0  0  0  0
   -0.4866   -0.1797    0.8095 C   0  0  0  0  0  0  0  0  0  0  0  0
    2.5075   -1.1429    0.9608 C   0  0  0  0  0  0  0  0  0  0  0  0
    2.1411    1.0800   -0.2757 C   0  0  0  0  0  0  0  0  0  0  0  0
   -1.9254   -0.5861    0.6467 C   0  0  0  0  0  0  0  0  0  0  0  0
   -2.9016    0.0890    0.0107 C   0  0  0  0  0  0  0  0  0  0  0  0
   -4.3257   -0.3726   -0.1177 C   0  0  0  0  0  0  0  0  0  0  0  0
   -2.6098    1.4061   -0.6568 C   0  0  0  0  0  0  0  0  0  0  0  0
    2.8410    1.8107    0.6008 C   0  0  0  0  0  0  0  0  0  0  0  0
   -0.0094   -0.3150   -1.2958 H   0  0  0  0  0  0  0  0  0  0  0  0
    0.2328   -1.8028   -0.4294 H   0  0  0  0  0  0  0  0  0  0  0  0
   -0.3903    0.9060    0.9086 H   0  0  0  0  0  0  0  0  0  0  0  0
   -0.1374   -0.5931    1.7628 H   0  0  0  0  0  0  0  0  0  0  0  0
    2.2879   -2.2162    0.9150 H   0  0  0  0  0  0  0  0  0  0  0  0
    3.6010   -1.0598    0.9450 H   0  0  0  0  0  0  0  0  0  0  0  0
    2.1479   -0.7622    1.9218 H   0  0  0  0  0  0  0  0  0  0  0  0
    1.7142    1.6101   -1.1263 H   0  0  0  0  0  0  0  0  0  0  0  0
   -2.1827   -1.5444    1.0956 H   0  0  0  0  0  0  0  0  0  0  0  0
    2.1069   -0.5717   -2.1882 H   0  0  0  0  0  0  0  0  0  0  0  0
   -4.5922   -0.5032   -1.1713 H   0  0  0  0  0  0  0  0  0  0  0  0
   -5.0055    0.3604    0.3282 H   0  0  0  0  0  0  0  0  0  0  0  0
   -4.4864   -1.3298    0.3893 H   0  0  0  0  0  0  0  0  0  0  0  0
   -3.1266    2.2142   -0.1283 H   0  0  0  0  0  0  0  0  0  0  0  0
   -1.5505    1.6655   -0.7108 H   0  0  0  0  0  0  0  0  0  0  0  0
   -2.9756    1.3876   -1.6897 H   0  0  0  0  0  0  0  0  0  0  0  0
    2.9549    2.8790    0.4489 H   0  0  0  0  0  0  0  0  0  0  0  0
    3.3104    1.3791    1.4764 H   0  0  0  0  0  0  0  0  0  0  0  0
  1 21  1  0  0  0  0
  2  1  1  6  0  0  0
  2  3  1  0  0  0  0
  2  5  1  0  0  0  0
  2  6  1  0  0  0  0
  3  4  1  0  0  0  0
  3 12  1  0  0  0  0
  3 13  1  0  0  0  0
  4  7  1  0  0  0  0
  4 14  1  0  0  0  0
  4 15  1  0  0  0  0
  5 16  1  0  0  0  0
  5 17  1  0  0  0  0
  5 18  1  0  0  0  0
  6 11  2  0  0  0  0
  6 19  1  0  0  0  0
  7  8  2  0  0  0  0
  7 20  1  0  0  0  0
  8  9  1  0  0  0  0
  8 10  1  0  0  0  0
  9 22  1  0  0  0  0
  9 23  1  0  0  0  0
  9 24  1  0  0  0  0
 10 25  1  0  0  0  0
 10 26  1  0  0  0  0
 10 27  1  0  0  0  0
 11 28  1  0  0  0  0
 11 29  1  0  0  0  0
M  END
>  <PUBCHEM_COMPOUND_CID>
6549

>  <PUBCHEM_CONFORMER_RMSD>
0.6

>  <PUBCHEM_CONFORMER_DIVERSEORDER>
7
41
12
38
13
39
29
20
50
44
34
9
16
52
28
17
30
32
33
5
42
26
10
36
18
35
15
27
8
31
37
21
2
23
24
46
11
40
22
48
19
3
49
1
47
45
14
51
25
6
43
4

>  <PUBCHEM_MMFF94_PARTIAL_CHARGES>
14
1 -0.68
10 0.14
11 -0.3
19 0.15
2 0.42
20 0.15
21 0.4
28 0.15
29 0.15
4 0.14
6 -0.29
7 -0.29
8 -0.28
9 0.14

>  <PUBCHEM_EFFECTIVE_ROTOR_COUNT>
4

>  <PUBCHEM_PHARMACOPHORE_FEATURES>
4
1 1 acceptor
1 1 donor
1 11 hydrophobe
3 8 9 10 hydrophobe

>  <PUBCHEM_HEAVY_ATOM_COUNT>
11

>  <PUBCHEM_ATOM_DEF_STEREO_COUNT>
0

>  <PUBCHEM_ATOM_UDEF_STEREO_COUNT>
1

>  <PUBCHEM_BOND_DEF_STEREO_COUNT>
0

>  <PUBCHEM_BOND_UDEF_STEREO_COUNT>
0

>  <PUBCHEM_ISOTOPIC_ATOM_COUNT>
0

>  <PUBCHEM_COMPONENT_COUNT>
1

>  <PUBCHEM_CACTVS_TAUTO_COUNT>
1

>  <PUBCHEM_CONFORMER_ID>
0000199500000007

>  <PUBCHEM_MMFF94_ENERGY>
16.2723

>  <PUBCHEM_FEATURE_SELFOVERLAP>
20.297

>  <PUBCHEM_SHAPE_FINGERPRINT>
12162725 195 18410008814969151665
12616999 72 17561084751791022415
12932764 1 18261119555969079259
14325111 11 18333730213114297201
14344429 50 18408603643672800986
14390081 3 18259703397972234169
15775835 57 18201156675540886829
17041 50 18269282270269465972
170605 34 18341050834509674032
18186145 218 18408889503705508969
19973954 147 18335424547368625989
20606313 2 18341893021419258793
20645477 70 18272653433124038087
20653085 51 18341340976857027713
20671657 53 17987533506710878110
21524375 3 17981886655635610376
21947302 44 18408321116054744976
22096605 113 18342454902052196633
230 275 18041283244008432124
23557571 272 18190754217853435859
3248919 1 17775287144812296067
57812782 119 18333728001084898387
8030462 33 17822018583652446963

>  <PUBCHEM_SHAPE_MULTIPOLES>
220.51
6.67
1.51
1.02
4.8
0.57
0.11
0.69
0.18
-0.96
-0.08
-0.54
-0.15
0.53

>  <PUBCHEM_SHAPE_SELFOVERLAP>
410.188

>  <PUBCHEM_SHAPE_VOLUME>
139.5

>  <PUBCHEM_COORDINATE_TYPE>
2
5
10

$$$$
689043
 OpenBabel10062414423D

 21 21  0  0  0  0  0  0  0  0999 V2000
    3.3190   -1.7785    0.1936 O   0  0  0  0  0  0  0  0  0  0  0  0
    4.0965    0.8849    0.0508 O   0  0  0  0  0  0  0  0  0  0  0  0
   -4.5229    0.9658    0.3589 O   0  0  0  0  0  0  0  0  0  0  0  0
   -4.0902   -1.1869   -0.2597 O   0  0  0  0  0  0  0  0  0  0  0  0
    0.0725   -0.1250   -0.1066 C   0  0  0  0  0  0  0  0  0  0  0  0
    1.0350   -1.1270    0.0177 C   0  0  0  0  0  0  0  0  0  0  0  0
    0.4630    1.2122   -0.1779 C   0  0  0  0  0  0  0  0  0  0  0  0
    2.3879   -0.7918    0.0705 C   0  0  0  0  0  0  0  0  0  0  0  0
    2.7784    0.5453   -0.0005 C   0  0  0  0  0  0  0  0  0  0  0  0
    1.8160    1.5473   -0.1248 C   0  0  0  0  0  0  0  0  0  0  0  0
   -1.3380   -0.4746   -0.1627 C   0  0  0  0  0  0  0  0  0  0  0  0
   -2.3077    0.3952    0.1047 C   0  0  0  0  0  0  0  0  0  0  0  0
   -3.7095   -0.0669    0.0361 C   0  0  0  0  0  0  0  0  0  0  0  0
    0.7426   -2.1734    0.0756 H   0  0  0  0  0  0  0  0  0  0  0  0
   -0.2423    2.0284   -0.3015 H   0  0  0  0  0  0  0  0  0  0  0  0
    2.1076    2.5925   -0.1870 H   0  0  0  0  0  0  0  0  0  0  0  0
   -1.5669   -1.5038   -0.4270 H   0  0  0  0  0  0  0  0  0  0  0  0
   -2.1467    1.4238    0.4033 H   0  0  0  0  0  0  0  0  0  0  0  0
    4.2003   -1.3667    0.2149 H   0  0  0  0  0  0  0  0  0  0  0  0
    4.1772    1.8522   -0.0117 H   0  0  0  0  0  0  0  0  0  0  0  0
   -5.4698    0.7109    0.3286 H   0  0  0  0  0  0  0  0  0  0  0  0
  1  8  1  0  0  0  0
  1 19  1  0  0  0  0
  2  9  1  0  0  0  0
  2 20  1  0  0  0  0
  3 13  1  0  0  0  0
  3 21  1  0  0  0  0
  4 13  2  0  0  0  0
  5  6  2  0  0  0  0
  5  7  1  0  0  0  0
  5 11  1  0  0  0  0
  6  8  1  0  0  0  0
  6 14  1  0  0  0  0
  7 10  2  0  0  0  0
  7 15  1  0  0  0  0
  8  9  2  0  0  0  0
  9 10  1  0  0  0  0
 10 16  1  0  0  0  0
 11 12  2  0  0  0  0
 11 17  1  0  0  0  0
 12 13  1  0  0  0  0
 12 18  1  0  0  0  0
M  END
>  <PUBCHEM_COMPOUND_CID>
689043

>  <PUBCHEM_CONFORMER_RMSD>
0.6

>  <PUBCHEM_CONFORMER_DIVERSEORDER>
1
2

>  <PUBCHEM_MMFF94_PARTIAL_CHARGES>
21
1 -0.53
10 -0.15
11 -0.18
12 -0.14
13 0.71
14 0.15
15 0.15
16 0.15
17 0.15
18 0.15
19 0.45
2 -0.53
20 0.45
21 0.5
3 -0.65
4 -0.57
5 0.03
6 -0.15
7 -0.15
8 0.08
9 0.08

>  <PUBCHEM_EFFECTIVE_ROTOR_COUNT>
2

>  <PUBCHEM_PHARMACOPHORE_FEATURES>
6
1 1 donor
1 2 donor
1 3 acceptor
1 4 acceptor
3 3 4 13 anion
6 5 6 7 8 9 10 rings

>  <PUBCHEM_HEAVY_ATOM_COUNT>
13

>  <PUBCHEM_ATOM_DEF_STEREO_COUNT>
0

>  <PUBCHEM_ATOM_UDEF_STEREO_COUNT>
0

>  <PUBCHEM_BOND_DEF_STEREO_COUNT>
1

>  <PUBCHEM_BOND_UDEF_STEREO_COUNT>
0

>  <PUBCHEM_ISOTOPIC_ATOM_COUNT>
0

>  <PUBCHEM_COMPONENT_COUNT>
1

>  <PUBCHEM_CACTVS_TAUTO_COUNT>
10

>  <PUBCHEM_CONFORMER_ID>
000A839300000001

>  <PUBCHEM_MMFF94_ENERGY>
32.6032

>  <PUBCHEM_FEATURE_SELFOVERLAP>
30.506

>  <PUBCHEM_SHAPE_FINGERPRINT>
10219947 1 18412265021176552998
10980938 120 18410011044025373774
11062470 55 18272089404869723785
11471102 20 18408881823882016612
12032990 46 18337392638943783110
12346645 6 18342740710956779662
12932764 1 17346587599786472741
13380535 76 18335702796809125162
14144814 61 18413108359780516017
14251717 144 18408600379001959303
14325111 11 18411419527205616253
14576447 43 18199175373047286799
15219456 202 18187636964628010213
15442244 35 18267587905397049569
15501101 241 18260266343403952092
15536298 74 18342739607007733550
18186145 218 17967811626635825739
200 152 18272642477099887159
20279233 1 17095241436537016995
20645477 70 18410571747737792927
20871998 22 18126004858715295510
21501925 9 18337099090987966450
22485316 2 18409164407287330639
23402539 116 17274819164432577013
23402655 69 18412259528330223461
2748010 2 18192697961406879940
449060 62 18411420635455053572
4990 188 18060151950489470156
5104073 3 18411419505725655379
581208 293 18334855047668835764
77779 3 18410857663947525075

>  <PUBCHEM_SHAPE_MULTIPOLES>
244.06
7.78
1.51
0.61
5.93
0.1
-0.01
0.08
0.47
-0.89
0
0.04
-0.01
-0.29

>  <PUBCHEM_SHAPE_SELFOVERLAP>
514.004

>  <PUBCHEM_SHAPE_VOLUME>
137.2

>  <PUBCHEM_COORDINATE_TYPE>
2
5
10

$$$$
6989
 OpenBabel10062414423D

 25 25  0  0  0  0  0  0  0  0999 V2000
   -0.4292    2.3458    0.0002 O   0  0  0  0  0  0  0  0  0  0  0  0
   -2.1355    0.0547    0.0000 C   0  0  0  0  0  0  0  0  0  0  0  0
   -0.6457   -0.0413    0.0000 C   0  0  0  0  0  0  0  0  0  0  0  0
   -2.7641   -0.5675    1.2605 C   0  0  0  0  0  0  0  0  0  0  0  0
   -2.7643   -0.5674   -1.2605 C   0  0  0  0  0  0  0  0  0  0  0  0
    0.1430    1.1093   -0.0001 C   0  0  0  0  0  0  0  0  0  0  0  0
   -0.0435   -1.2995    0.0000 C   0  0  0  0  0  0  0  0  0  0  0  0
    2.1358   -0.2566    0.0000 C   0  0  0  0  0  0  0  0  0  0  0  0
    1.5336    1.0016    0.0000 C   0  0  0  0  0  0  0  0  0  0  0  0
    1.3473   -1.4072    0.0000 C   0  0  0  0  0  0  0  0  0  0  0  0
    3.6226   -0.3719   -0.0001 C   0  0  0  0  0  0  0  0  0  0  0  0
   -2.4660    1.0979    0.0133 H   0  0  0  0  0  0  0  0  0  0  0  0
   -2.5940   -1.6482    1.3137 H   0  0  0  0  0  0  0  0  0  0  0  0
   -3.8469   -0.4017    1.2722 H   0  0  0  0  0  0  0  0  0  0  0  0
   -2.3455   -0.1167    2.1671 H   0  0  0  0  0  0  0  0  0  0  0  0
   -2.3483   -0.1132   -2.1667 H   0  0  0  0  0  0  0  0  0  0  0  0
   -3.8475   -0.4038   -1.2701 H   0  0  0  0  0  0  0  0  0  0  0  0
   -2.5917   -1.6475   -1.3159 H   0  0  0  0  0  0  0  0  0  0  0  0
   -0.6363   -2.2100    0.0005 H   0  0  0  0  0  0  0  0  0  0  0  0
    2.1434    1.9020    0.0017 H   0  0  0  0  0  0  0  0  0  0  0  0
    1.8047   -2.3930    0.0019 H   0  0  0  0  0  0  0  0  0  0  0  0
    4.0835    0.4669   -0.5326 H   0  0  0  0  0  0  0  0  0  0  0  0
    3.9984   -0.3845    1.0278 H   0  0  0  0  0  0  0  0  0  0  0  0
    3.9485   -1.2884   -0.5038 H   0  0  0  0  0  0  0  0  0  0  0  0
   -1.1636    2.3514   -0.6359 H   0  0  0  0  0  0  0  0  0  0  0  0
  1  6  1  0  0  0  0
  1 25  1  0  0  0  0
  2  3  1  0  0  0  0
  2  4  1  0  0  0  0
  2  5  1  0  0  0  0
  2 12  1  0  0  0  0
  3  6  2  0  0  0  0
  3  7  1  0  0  0  0
  4 13  1  0  0  0  0
  4 14  1  0  0  0  0
  4 15  1  0  0  0  0
  5 16  1  0  0  0  0
  5 17  1  0  0  0  0
  5 18  1  0  0  0  0
  6  9  1  0  0  0  0
  7 10  2  0  0  0  0
  7 19  1  0  0  0  0
  8  9  2  0  0  0  0
  8 10  1  0  0  0  0
  8 11  1  0  0  0  0
  9 20  1  0  0  0  0
 10 21  1  0  0  0  0
 11 22  1  0  0  0  0
 11 23  1  0  0  0  0
 11 24  1  0  0  0  0
M  END
>  <PUBCHEM_COMPOUND_CID>
6989

>  <PUBCHEM_CONFORMER_RMSD>
0.4

>  <PUBCHEM_CONFORMER_DIVERSEORDER>
1
2

>  <PUBCHEM_MMFF94_PARTIAL_CHARGES>
13
1 -0.53
10 -0.15
11 0.14
19 0.15
2 0.14
20 0.15
21 0.15
25 0.45
3 -0.14
6 0.08
7 -0.15
8 -0.14
9 -0.15

>  <PUBCHEM_EFFECTIVE_ROTOR_COUNT>
1

>  <PUBCHEM_PHARMACOPHORE_FEATURES>
3
1 1 donor
3 2 4 5 hydrophobe
6 3 6 7 8 9 10 rings

>  <PUBCHEM_HEAVY_ATOM_COUNT>
11

>  <PUBCHEM_ATOM_DEF_STEREO_COUNT>
0

>  <PUBCHEM_ATOM_UDEF_STEREO_COUNT>
0

>  <PUBCHEM_BOND_DEF_STEREO_COUNT>
0

>  <PUBCHEM_BOND_UDEF_STEREO_COUNT>
0

>  <PUBCHEM_ISOTOPIC_ATOM_COUNT>
0

>  <PUBCHEM_COMPONENT_COUNT>
1

>  <PUBCHEM_CACTVS_TAUTO_COUNT>
9

>  <PUBCHEM_CONFORMER_ID>
00001B4D00000001

>  <PUBCHEM_MMFF94_ENERGY>
29.82

>  <PUBCHEM_FEATURE_SELFOVERLAP>
15.223

>  <PUBCHEM_SHAPE_FINGERPRINT>
10219947 1 18412548729573213290
10353120 184 18265071187800375974
10857977 72 18407758148815719290
11206711 2 18336547105980667460
12032990 46 18409176514737178842
12138202 97 17023168436557295847
12897270 3 18409725136536990198
14128692 85 17773299326663202335
14993402 34 18201150035479236559
16945 1 18410856559940632322
17844478 74 17894640270257902289
18534176 82 17095518496356042447
193761 8 17762336912097615650
20201158 50 18259701185911316835
21061003 4 18335713757697163265
21501502 16 18049719620798176626
23402539 116 18341321224402666742
23402655 69 18194663901288233901
23552423 10 18045506305167866222
2748010 2 18122347049664325326
29004967 10 18335426767813626411
5084963 1 18060128864533857939
528886 8 18411978053047505651
63268167 104 18270112551703577745

>  <PUBCHEM_SHAPE_MULTIPOLES>
220.51
4.55
1.6
0.9
0.87
0.7
0
-1.12
0
0.16
0
-0.82
-0.16
0

>  <PUBCHEM_SHAPE_SELFOVERLAP>
450.893

>  <PUBCHEM_SHAPE_VOLUME>
129.8

>  <PUBCHEM_COORDINATE_TYPE>
2
5
10

$$$$
72
 OpenBabel10062414423D

 17 17  0  0  0  0  0  0  0  0999 V2000
   -2.2020    1.8803    0.0009 O   0  0  0  0  0  0  0  0  0  0  0  0
   -3.1994   -0.7136    0.0004 O   0  0  0  0  0  0  0  0  0  0  0  0
    3.0463   -0.9893    0.0021 O   0  0  0  0  0  0  0  0  0  0  0  0
    2.8870    1.2781   -0.0003 O   0  0  0  0  0  0  0  0  0  0  0  0
    0.8998   -0.0540   -0.0012 C   0  0  0  0  0  0  0  0  0  0  0  0
    0.0228    1.0307   -0.0006 C   0  0  0  0  0  0  0  0  0  0  0  0
   -1.3552    0.8134    0.0001 C   0  0  0  0  0  0  0  0  0  0  0  0
    0.3990   -1.3559   -0.0010 C   0  0  0  0  0  0  0  0  0  0  0  0
   -1.8558   -0.4886    0.0002 C   0  0  0  0  0  0  0  0  0  0  0  0
   -0.9788   -1.5733   -0.0003 C   0  0  0  0  0  0  0  0  0  0  0  0
    2.3364    0.1723   -0.0002 C   0  0  0  0  0  0  0  0  0  0  0  0
    0.3994    2.0508   -0.0003 H   0  0  0  0  0  0  0  0  0  0  0  0
    1.0458   -2.2288   -0.0012 H   0  0  0  0  0  0  0  0  0  0  0  0
   -1.3559   -2.5926   -0.0001 H   0  0  0  0  0  0  0  0  0  0  0  0
   -3.1157    1.5456    0.0014 H   0  0  0  0  0  0  0  0  0  0  0  0
   -3.3599   -1.6729    0.0003 H   0  0  0  0  0  0  0  0  0  0  0  0
    4.0136   -0.8258    0.0033 H   0  0  0  0  0  0  0  0  0  0  0  0
  1  7  1  0  0  0  0
  1 15  1  0  0  0  0
  2  9  1  0  0  0  0
  2 16  1  0  0  0  0
  3 11  1  0  0  0  0
  3 17  1  0  0  0  0
  4 11  2  0  0  0  0
  5  6  2  0  0  0  0
  5  8  1  0  0  0  0
  5 11  1  0  0  0  0
  6  7  1  0  0  0  0
  6 12  1  0  0  0  0
  7  9  2  0  0  0  0
  8 10  2  0  0  0  0
  8 13  1  0  0  0  0
  9 10  1  0  0  0  0
 10 14  1  0  0  0  0
M  END
>  <PUBCHEM_COMPOUND_CID>
72

>  <PUBCHEM_CONFORMER_RMSD>
0.4

>  <PUBCHEM_CONFORMER_DIVERSEORDER>
1
2

>  <PUBCHEM_MMFF94_PARTIAL_CHARGES>
17
1 -0.53
10 -0.15
11 0.63
12 0.15
13 0.15
14 0.15
15 0.45
16 0.45
17 0.5
2 -0.53
3 -0.65
4 -0.57
5 0.09
6 -0.15
7 0.08
8 -0.15
9 0.08

>  <PUBCHEM_EFFECTIVE_ROTOR_COUNT>
1

>  <PUBCHEM_PHARMACOPHORE_FEATURES>
6
1 1 donor
1 2 donor
1 3 acceptor
1 4 acceptor
3 3 4 11 anion
6 5 6 7 8 9 10 rings

>  <PUBCHEM_HEAVY_ATOM_COUNT>
11

>  <PUBCHEM_ATOM_DEF_STEREO_COUNT>
0

>  <PUBCHEM_ATOM_UDEF_STEREO_COUNT>
0

>  <PUBCHEM_BOND_DEF_STEREO_COUNT>
0

>  <PUBCHEM_BOND_UDEF_STEREO_COUNT>
0

>  <PUBCHEM_ISOTOPIC_ATOM_COUNT>
0

>  <PUBCHEM_COMPONENT_COUNT>
1

>  <PUBCHEM_CACTVS_TAUTO_COUNT>
12

>  <PUBCHEM_CONFORMER_ID>
0000004800000001

>  <PUBCHEM_MMFF94_ENERGY>
28.6331

>  <PUBCHEM_FEATURE_SELFOVERLAP>
30.508

>  <PUBCHEM_SHAPE_FINGERPRINT>
12032990 46 18336835302671133059
12897270 3 18410291414984505855
12932764 1 17561077042540958214
13380535 76 18194679268264006191
14325111 11 18410575067668014436
16945 1 18338797939104723367
193761 8 17906452121806557059
19973954 147 18410857668058070932
20871998 184 18129105700211345943
21040471 1 18338798914115034084
23402655 69 18196635334511613901
23552423 10 18333170557343035926
2748010 2 18339081488582254237
369184 2 18342455962840410370
5084963 1 18272652337590515546

>  <PUBCHEM_SHAPE_MULTIPOLES>
202.9
4.24
1.7
0.58
1.19
0.16
0
0.25
0
-0.41
0
-0.01
-0.01
0

>  <PUBCHEM_SHAPE_SELFOVERLAP>
431.298

>  <PUBCHEM_SHAPE_VOLUME>
113.3

>  <PUBCHEM_COORDINATE_TYPE>
2
5
10

$$$$
72276
 OpenBabel10062414423D

 35 37  0  0  1  0  0  0  0  0999 V2000
    0.4554    0.7571   -0.1114 O   0  0  0  0  0  0  0  0  0  0  0  0
   -0.0198   -1.3181    1.8283 O   0  0  0  0  0  0  0  0  0  0  0  0
    4.3334   -2.1453   -0.0043 O   0  0  0  0  0  0  0  0  0  0  0  0
    4.8215    2.5776   -0.3171 O   0  0  0  0  0  0  0  0  0  0  0  0
   -5.1189   -0.8225   -1.5254 O   0  0  0  0  0  0  0  0  0  0  0  0
   -5.8048    0.9634    0.4911 O   0  0  0  0  0  0  0  0  0  0  0  0
    0.0528   -1.6121    0.4327 C   0  0  1  0  0  0  0  0  0  0  0  0
   -0.3707   -0.3857   -0.3865 C   0  0  1  0  0  0  0  0  0  0  0  0
    1.4880   -1.9916    0.0735 C   0  0  0  0  0  0  0  0  0  0  0  0
    2.3596   -0.7696   -0.0367 C   0  0  0  0  0  0  0  0  0  0  0  0
    1.8044    0.5129   -0.1299 C   0  0  0  0  0  0  0  0  0  0  0  0
   -1.8267   -0.0272   -0.1539 C   0  0  0  0  0  0  0  0  0  0  0  0
    3.7534   -0.9121   -0.0674 C   0  0  0  0  0  0  0  0  0  0  0  0
    2.6318    1.6361   -0.2107 C   0  0  0  0  0  0  0  0  0  0  0  0
   -2.8188   -0.5931   -0.9529 C   0  0  0  0  0  0  0  0  0  0  0  0
   -2.1694    0.8683    0.8581 C   0  0  0  0  0  0  0  0  0  0  0  0
    4.5779    0.2096   -0.1623 C   0  0  0  0  0  0  0  0  0  0  0  0
    4.0172    1.4831   -0.2297 C   0  0  0  0  0  0  0  0  0  0  0  0
   -4.1571   -0.2628   -0.7396 C   0  0  0  0  0  0  0  0  0  0  0  0
   -3.5076    1.1987    1.0713 C   0  0  0  0  0  0  0  0  0  0  0  0
   -4.5014    0.6331    0.2726 C   0  0  0  0  0  0  0  0  0  0  0  0
   -0.6030   -2.4707    0.2456 H   0  0  0  0  0  0  0  0  0  0  0  0
   -0.2554   -0.6034   -1.4586 H   0  0  0  0  0  0  0  0  0  0  0  0
    1.5007   -2.5079   -0.8940 H   0  0  0  0  0  0  0  0  0  0  0  0
    1.8879   -2.6664    0.8395 H   0  0  0  0  0  0  0  0  0  0  0  0
    2.1897    2.6282   -0.2657 H   0  0  0  0  0  0  0  0  0  0  0  0
   -2.5491   -1.2932   -1.7399 H   0  0  0  0  0  0  0  0  0  0  0  0
   -0.9590   -1.2961    2.0778 H   0  0  0  0  0  0  0  0  0  0  0  0
   -1.4138    1.3149    1.4984 H   0  0  0  0  0  0  0  0  0  0  0  0
    5.6594    0.0989   -0.1825 H   0  0  0  0  0  0  0  0  0  0  0  0
   -3.7622    1.8965    1.8646 H   0  0  0  0  0  0  0  0  0  0  0  0
    5.3002   -2.0460   -0.0383 H   0  0  0  0  0  0  0  0  0  0  0  0
    4.2661    3.3752   -0.3553 H   0  0  0  0  0  0  0  0  0  0  0  0
   -4.6962   -1.4158   -2.1700 H   0  0  0  0  0  0  0  0  0  0  0  0
   -5.8521    1.5945    1.2297 H   0  0  0  0  0  0  0  0  0  0  0  0
  1  8  1  0  0  0  0
  1 11  1  0  0  0  0
  2  7  1  0  0  0  0
  2 28  1  0  0  0  0
  3 13  1  0  0  0  0
  3 32  1  0  0  0  0
  4 18  1  0  0  0  0
  4 33  1  0  0  0  0
  5 19  1  0  0  0  0
  5 34  1  0  0  0  0
  6 21  1  0  0  0  0
  6 35  1  0  0  0  0
  7  8  1  0  0  0  0
  7  9  1  0  0  0  0
  7 22  1  6  0  0  0
  8 12  1  0  0  0  0
  8 23  1  6  0  0  0
  9 10  1  0  0  0  0
  9 24  1  0  0  0  0
  9 25  1  0  0  0  0
 10 11  1  0  0  0  0
 10 13  2  0  0  0  0
 11 14  2  0  0  0  0
 12 15  2  0  0  0  0
 12 16  1  0  0  0  0
 13 17  1  0  0  0  0
 14 18  1  0  0  0  0
 14 26  1  0  0  0  0
 15 19  1  0  0  0  0
 15 27  1  0  0  0  0
 16 20  2  0  0  0  0
 16 29  1  0  0  0  0
 17 18  2  0  0  0  0
 17 30  1  0  0  0  0
 19 21  2  0  0  0  0
 20 21  1  0  0  0  0
 20 31  1  0  0  0  0
M  END
>  <PUBCHEM_COMPOUND_CID>
72276

>  <PUBCHEM_CONFORMER_RMSD>
0.6

>  <PUBCHEM_CONFORMER_DIVERSEORDER>
2
7
6
3
8
9
5
4
10
1

>  <PUBCHEM_MMFF94_PARTIAL_CHARGES>
31
1 -0.36
10 -0.14
11 0.08
12 -0.14
13 0.08
14 -0.15
15 -0.15
16 -0.15
17 -0.15
18 0.08
19 0.08
2 -0.68
20 -0.15
21 0.08
26 0.15
27 0.15
28 0.4
29 0.15
3 -0.53
30 0.15
31 0.15
32 0.45
33 0.45
34 0.45
35 0.45
4 -0.53
5 -0.53
6 -0.53
7 0.28
8 0.42
9 0.14

>  <PUBCHEM_EFFECTIVE_ROTOR_COUNT>
1.8

>  <PUBCHEM_PHARMACOPHORE_FEATURES>
10
1 1 acceptor
1 2 acceptor
1 2 donor
1 3 donor
1 4 donor
1 5 donor
1 6 donor
6 1 7 8 9 10 11 rings
6 10 11 13 14 17 18 rings
6 12 15 16 19 20 21 rings

>  <PUBCHEM_HEAVY_ATOM_COUNT>
21

>  <PUBCHEM_ATOM_DEF_STEREO_COUNT>
2

>  <PUBCHEM_ATOM_UDEF_STEREO_COUNT>
0

>  <PUBCHEM_BOND_DEF_STEREO_COUNT>
0

>  <PUBCHEM_BOND_UDEF_STEREO_COUNT>
0

>  <PUBCHEM_ISOTOPIC_ATOM_COUNT>
0

>  <PUBCHEM_COMPONENT_COUNT>
1

>  <PUBCHEM_CACTVS_TAUTO_COUNT>
90

>  <PUBCHEM_CONFORMER_ID>
00011A5400000002

>  <PUBCHEM_MMFF94_ENERGY>
59.9404

>  <PUBCHEM_FEATURE_SELFOVERLAP>
50.784

>  <PUBCHEM_SHAPE_FINGERPRINT>
10411042 1 17760649170835656874
10595046 47 18272650173132726693
10912923 1 18131070433053154673
11471102 20 18335420158296820614
12107183 9 17623298173428154049
12236239 1 18343865498709679005
12403259 415 17676203546268029317
12616971 3 18341895152128855567
13140716 1 18260550048012320250
13167823 11 18272931609354647903
13631057 29 18195521730727134063
13760787 5 18411416198563764037
14528608 73 18342739649772991876
14739800 52 17631717375208541968
15196674 1 18410857680758298039
15342168 16 18115315603953651644
15375358 24 16805318890594390677
15848702 151 18199189490457082542
17834072 33 18343863316497014711
18186145 218 18114180826280569534
19784866 240 16414931721270864054
200 152 18272085002918577055
204376 136 17968098658957293691
20612939 158 18409448076976460060
20645477 70 18410009914623425270
21033648 144 18261387883961142022
21033648 29 17095516288463219397
21267235 1 18341903939268225703
21709351 56 18339357444526035244
22079108 93 18114188553301158371
23402539 116 17846492621823497613
23402655 69 18342738554735380646
23557571 272 15123517951815092776
23558518 356 17391358781388228490
23559900 14 18335986441461387738
29717793 49 17988639658215480789
335352 9 18409169927158979030
34797466 226 15841269358428766528
4340502 62 17967825929435974331
474 4 18334859462826910644
5104073 3 18335421291698845043
542803 24 18412262835333585485
602551 16 15697420226518036815
633830 44 18335421244512200223
67856867 119 18201429307607216128
69090 78 18410290328484653302
7495541 125 16845281765792324683
8272917 22 18341618088104852166
9981440 41 17405693157234727560

>  <PUBCHEM_SHAPE_MULTIPOLES>
396.95
11.38
2
1.01
5.2
0.08
-0.13
3.26
1.59
-2.45
-0.12
0.98
-0.17
-1.17

>  <PUBCHEM_SHAPE_SELFOVERLAP>
876.493

>  <PUBCHEM_SHAPE_VOLUME>
211.8

>  <PUBCHEM_COORDINATE_TYPE>
2
5
10

$$$$
72277
 OpenBabel10062414423D

 36 38  0  0  1  0  0  0  0  0999 V2000
    0.6122    0.6442   -0.2985 O   0  0  0  0  0  0  0  0  0  0  0  0
    0.1483   -1.0908    1.9530 O   0  0  0  0  0  0  0  0  0  0  0  0
    4.5847   -2.0400    0.4003 O   0  0  0  0  0  0  0  0  0  0  0  0
    4.9158    2.5779   -0.6985 O   0  0  0  0  0  0  0  0  0  0  0  0
   -3.7855    2.1361    1.5101 O   0  0  0  0  0  0  0  0  0  0  0  0
   -4.8538   -1.3772   -1.5644 O   0  0  0  0  0  0  0  0  0  0  0  0
   -5.6722    0.6853    0.0928 O   0  0  0  0  0  0  0  0  0  0  0  0
    0.2761   -1.6133    0.6300 C   0  0  1  0  0  0  0  0  0  0  0  0
   -0.1638   -0.5610   -0.3964 C   0  0  1  0  0  0  0  0  0  0  0  0
    1.7347   -1.9899    0.3777 C   0  0  0  0  0  0  0  0  0  0  0  0
    2.5657   -0.7701    0.0837 C   0  0  0  0  0  0  0  0  0  0  0  0
   -1.6382   -0.2272   -0.2657 C   0  0  0  0  0  0  0  0  0  0  0  0
    1.9689    0.4548   -0.2405 C   0  0  0  0  0  0  0  0  0  0  0  0
    3.9640   -0.8595    0.1136 C   0  0  0  0  0  0  0  0  0  0  0  0
    2.7583    1.5805   -0.4899 C   0  0  0  0  0  0  0  0  0  0  0  0
   -2.5834   -0.9602   -0.9814 C   0  0  0  0  0  0  0  0  0  0  0  0
   -2.0447    0.8123    0.5695 C   0  0  0  0  0  0  0  0  0  0  0  0
    4.7510    0.2623   -0.1496 C   0  0  0  0  0  0  0  0  0  0  0  0
    4.1481    1.4824   -0.4469 C   0  0  0  0  0  0  0  0  0  0  0  0
   -3.4002    1.1195    0.6892 C   0  0  0  0  0  0  0  0  0  0  0  0
   -3.9388   -0.6528   -0.8617 C   0  0  0  0  0  0  0  0  0  0  0  0
   -4.3471    0.3869   -0.0264 C   0  0  0  0  0  0  0  0  0  0  0  0
   -0.3426   -2.5168    0.5749 H   0  0  0  0  0  0  0  0  0  0  0  0
   -0.0064   -0.9518   -1.4125 H   0  0  0  0  0  0  0  0  0  0  0  0
    1.7966   -2.6614   -0.4873 H   0  0  0  0  0  0  0  0  0  0  0  0
    2.1332   -2.5091    1.2574 H   0  0  0  0  0  0  0  0  0  0  0  0
    2.2835    2.5305   -0.7242 H   0  0  0  0  0  0  0  0  0  0  0  0
   -2.2638   -1.7722   -1.6300 H   0  0  0  0  0  0  0  0  0  0  0  0
   -1.3151    1.3831    1.1382 H   0  0  0  0  0  0  0  0  0  0  0  0
   -0.7985   -1.0647    2.1707 H   0  0  0  0  0  0  0  0  0  0  0  0
    5.8358    0.1933   -0.1228 H   0  0  0  0  0  0  0  0  0  0  0  0
    5.5480   -1.9091    0.3748 H   0  0  0  0  0  0  0  0  0  0  0  0
    4.3341    3.3345   -0.8861 H   0  0  0  0  0  0  0  0  0  0  0  0
   -2.9968    2.5285    1.9221 H   0  0  0  0  0  0  0  0  0  0  0  0
   -4.3895   -2.0535   -2.0869 H   0  0  0  0  0  0  0  0  0  0  0  0
   -5.7647    1.4300    0.7121 H   0  0  0  0  0  0  0  0  0  0  0  0
  1  9  1  0  0  0  0
  1 13  1  0  0  0  0
  2  8  1  0  0  0  0
  2 30  1  0  0  0  0
  3 14  1  0  0  0  0
  3 32  1  0  0  0  0
  4 19  1  0  0  0  0
  4 33  1  0  0  0  0
  5 20  1  0  0  0  0
  5 34  1  0  0  0  0
  6 21  1  0  0  0  0
  6 35  1  0  0  0  0
  7 22  1  0  0  0  0
  7 36  1  0  0  0  0
  8  9  1  0  0  0  0
  8 10  1  0  0  0  0
  8 23  1  6  0  0  0
  9 12  1  0  0  0  0
  9 24  1  6  0  0  0
 10 11  1  0  0  0  0
 10 25  1  0  0  0  0
 10 26  1  0  0  0  0
 11 13  1  0  0  0  0
 11 14  2  0  0  0  0
 12 16  2  0  0  0  0
 12 17  1  0  0  0  0
 13 15  2  0  0  0  0
 14 18  1  0  0  0  0
 15 19  1  0  0  0  0
 15 27  1  0  0  0  0
 16 21  1  0  0  0  0
 16 28  1  0  0  0  0
 17 20  2  0  0  0  0
 17 29  1  0  0  0  0
 18 19  2  0  0  0  0
 18 31  1  0  0  0  0
 20 22  1  0  0  0  0
 21 22  2  0  0  0  0
M  END
>  <PUBCHEM_COMPOUND_CID>
72277

>  <PUBCHEM_CONFORMER_RMSD>
0.6

>  <PUBCHEM_CONFORMER_DIVERSEORDER>
1
4
3
2
5

>  <PUBCHEM_MMFF94_PARTIAL_CHARGES>
32
1 -0.36
10 0.14
11 -0.14
12 -0.14
13 0.08
14 0.08
15 -0.15
16 -0.15
17 -0.15
18 -0.15
19 0.08
2 -0.68
20 0.08
21 0.08
22 0.08
27 0.15
28 0.15
29 0.15
3 -0.53
30 0.4
31 0.15
32 0.45
33 0.45
34 0.45
35 0.45
36 0.45
4 -0.53
5 -0.53
6 -0.53
7 -0.53
8 0.28
9 0.42

>  <PUBCHEM_EFFECTIVE_ROTOR_COUNT>
1.8

>  <PUBCHEM_PHARMACOPHORE_FEATURES>
11
1 1 acceptor
1 2 acceptor
1 2 donor
1 3 donor
1 4 donor
1 5 donor
1 6 donor
1 7 donor
6 1 8 9 10 11 13 rings
6 11 13 14 15 18 19 rings
6 12 16 17 20 21 22 rings

>  <PUBCHEM_HEAVY_ATOM_COUNT>
22

>  <PUBCHEM_ATOM_DEF_STEREO_COUNT>
2

>  <PUBCHEM_ATOM_UDEF_STEREO_COUNT>
0

>  <PUBCHEM_BOND_DEF_STEREO_COUNT>
0

>  <PUBCHEM_BOND_UDEF_STEREO_COUNT>
0

>  <PUBCHEM_ISOTOPIC_ATOM_COUNT>
0

>  <PUBCHEM_COMPONENT_COUNT>
1

>  <PUBCHEM_CACTVS_TAUTO_COUNT>
99

>  <PUBCHEM_CONFORMER_ID>
00011A5500000001

>  <PUBCHEM_MMFF94_ENERGY>
62.15

>  <PUBCHEM_FEATURE_SELFOVERLAP>
55.865

>  <PUBCHEM_SHAPE_FINGERPRINT>
10411042 1 17758111506688904970
10595046 47 18343300400581578405
10912923 1 18343301470023121209
11471102 20 18260546719359586654
12107183 9 17766001597095308283
12236239 1 18412544293436265111
12403259 415 17313098631456472287
12616971 3 18411136905346160423
13140716 1 18113902689058087170
13167823 11 18343018882671285415
13583140 156 15213293179297150660
13631057 29 18120651594456226759
14528608 73 18411982498523306020
14739800 52 17916851543812253256
15196674 1 18408604785627764575
15342168 16 17968385666152763884
15848702 151 18268430144379050390
17834072 33 18413105065435228527
18186145 218 17967813838580958470
200 152 18412821404620922439
20300324 65 18131070471966414189
204376 136 17749111127150308314
20612939 158 18334575733292744862
20645477 70 18334289856048876518
21033648 144 18114459045735380318
21033648 29 16660355974415693741
21033650 10 17630355024002934512
21065198 48 18342176665364737101
21267235 1 18340775857760667791
21709351 56 18337105649197214830
22079108 93 17967821569632744507
23402539 116 18059849571843535253
23402655 69 18339922714173285430
23557571 272 16845294890996084017
23559900 14 17058660555742545062
29717793 49 18201996599413734991
335352 9 18334297587696449550
34797466 226 16200151040451275576
4340502 62 17749118773009591331
474 4 18260833730132520812
5104073 3 18407760352112902074
573450 72 18131347479865874571
6034566 193 17100048651898534940
633830 44 18335425638295457518
67856867 119 18343011233793441128
7495541 125 17131824404348459339
8272917 22 18410858737758259006
9981440 41 17475222978425094904

>  <PUBCHEM_SHAPE_MULTIPOLES>
411.66
11.52
2.11
1.11
2.72
0.34
-0.2
3.03
1.67
-1.69
-0.19
0.93
-0.1
-2.05

>  <PUBCHEM_SHAPE_SELFOVERLAP>
910.565

>  <PUBCHEM_SHAPE_VOLUME>
219.2

>  <PUBCHEM_COORDINATE_TYPE>
2
5
10

$$$$
8468
 OpenBabel10062414423D

 20 20  0  0  0  0  0  0  0  0999 V2000
    2.2270   -1.2769   -0.4333 O   0  0  0  0  0  0  0  0  0  0  0  0
    2.7732    1.4275   -0.0997 O   0  0  0  0  0  0  0  0  0  0  0  0
   -3.4158    0.6003    0.2100 O   0  0  0  0  0  0  0  0  0  0  0  0
   -2.8793   -1.5824   -0.1287 O   0  0  0  0  0  0  0  0  0  0  0  0
    1.2153   -0.3850   -0.2428 C   0  0  0  0  0  0  0  0  0  0  0  0
   -1.1481    0.0653   -0.0212 C   0  0  0  0  0  0  0  0  0  0  0  0
   -0.1036   -0.8386   -0.2160 C   0  0  0  0  0  0  0  0  0  0  0  0
    1.4895    0.9724   -0.0749 C   0  0  0  0  0  0  0  0  0  0  0  0
   -0.8736    1.4226    0.1467 C   0  0  0  0  0  0  0  0  0  0  0  0
    0.4451    1.8762    0.1199 C   0  0  0  0  0  0  0  0  0  0  0  0
   -2.5231   -0.4076    0.0084 C   0  0  0  0  0  0  0  0  0  0  0  0
    2.7933   -1.8737    0.7318 C   0  0  0  0  0  0  0  0  0  0  0  0
   -0.3039   -1.8992   -0.3486 H   0  0  0  0  0  0  0  0  0  0  0  0
   -1.6561    2.1603    0.3010 H   0  0  0  0  0  0  0  0  0  0  0  0
    0.6453    2.9362    0.2519 H   0  0  0  0  0  0  0  0  0  0  0  0
    2.0365   -2.4502    1.2732 H   0  0  0  0  0  0  0  0  0  0  0  0
    3.2232   -1.1092    1.3866 H   0  0  0  0  0  0  0  0  0  0  0  0
    3.5904   -2.5523    0.4162 H   0  0  0  0  0  0  0  0  0  0  0  0
    2.7705    2.3908    0.0340 H   0  0  0  0  0  0  0  0  0  0  0  0
   -4.3397    0.2710    0.2289 H   0  0  0  0  0  0  0  0  0  0  0  0
  1  5  1  0  0  0  0
  1 12  1  0  0  0  0
  2  8  1  0  0  0  0
  2 19  1  0  0  0  0
  3 11  1  0  0  0  0
  3 20  1  0  0  0  0
  4 11  2  0  0  0  0
  5  7  1  0  0  0  0
  5  8  2  0  0  0  0
  6  7  2  0  0  0  0
  6  9  1  0  0  0  0
  6 11  1  0  0  0  0
  7 13  1  0  0  0  0
  8 10  1  0  0  0  0
  9 10  2  0  0  0  0
  9 14  1  0  0  0  0
 10 15  1  0  0  0  0
 12 16  1  0  0  0  0
 12 17  1  0  0  0  0
 12 18  1  0  0  0  0
M  END
>  <PUBCHEM_COMPOUND_CID>
8468

>  <PUBCHEM_CONFORMER_RMSD>
0.6

>  <PUBCHEM_CONFORMER_DIVERSEORDER>
1
3
2

>  <PUBCHEM_MMFF94_PARTIAL_CHARGES>
17
1 -0.36
10 -0.15
11 0.63
12 0.28
13 0.15
14 0.15
15 0.15
19 0.45
2 -0.53
20 0.5
3 -0.65
4 -0.57
5 0.08
6 0.09
7 -0.15
8 0.08
9 -0.15

>  <PUBCHEM_EFFECTIVE_ROTOR_COUNT>
2

>  <PUBCHEM_PHARMACOPHORE_FEATURES>
6
1 1 acceptor
1 2 donor
1 3 acceptor
1 4 acceptor
3 3 4 11 anion
6 5 6 7 8 9 10 rings

>  <PUBCHEM_HEAVY_ATOM_COUNT>
12

>  <PUBCHEM_ATOM_DEF_STEREO_COUNT>
0

>  <PUBCHEM_ATOM_UDEF_STEREO_COUNT>
0

>  <PUBCHEM_BOND_DEF_STEREO_COUNT>
0

>  <PUBCHEM_BOND_UDEF_STEREO_COUNT>
0

>  <PUBCHEM_ISOTOPIC_ATOM_COUNT>
0

>  <PUBCHEM_COMPONENT_COUNT>
1

>  <PUBCHEM_CACTVS_TAUTO_COUNT>
4

>  <PUBCHEM_CONFORMER_ID>
0000211400000001

>  <PUBCHEM_MMFF94_ENERGY>
42.9289

>  <PUBCHEM_FEATURE_SELFOVERLAP>
30.504

>  <PUBCHEM_SHAPE_FINGERPRINT>
10130415 120 18339360760499211393
12932764 1 17749104461608965231
14128692 85 18338241470541801430
14325111 11 18411983602287644237
16945 1 18265897054082045037
17990270 104 18410293657062994315
19021347 11 18265613371660728470
20201158 50 18263361554625112499
20645477 70 18411133650077929223
20653091 64 18336265661221442074
20711985 365 18265895752881261533
20871998 184 17912353235093811462
20871998 22 18198911305641572318
21501502 16 18411700976228160141
21501925 9 18339911679996314795
21650355 55 17614541667721211754
23402655 69 18343291571120874325
23463225 33 18411138013194411300
23552423 10 18334582368632231597
2748010 2 18411698759814032565
528862 383 18337103561948610094
53812653 166 18200874105379372296
63268167 104 18412831308583424529
7364860 26 18343865520052646656

>  <PUBCHEM_SHAPE_MULTIPOLES>
223.48
4.59
2.03
0.66
1.45
0.12
-0.03
-1.61
-0.37
-0.9
-0.16
-0.15
-0.08
-0.34

>  <PUBCHEM_SHAPE_SELFOVERLAP>
469.411

>  <PUBCHEM_SHAPE_VOLUME>
126.8

>  <PUBCHEM_COORDINATE_TYPE>
2
5
10

$$$$
936
 OpenBabel10062414423D

 15 15  0  0  0  0  0  0  0  0999 V2000
   -2.3940    1.1116   -0.0088 O   0  0  0  0  0  0  0  0  0  0  0  0
    1.7614   -1.2284   -0.0034 N   0  0  0  0  0  0  0  0  0  0  0  0
   -2.4052   -1.1814    0.0027 N   0  0  0  0  0  0  0  0  0  0  0  0
   -0.2969    0.0397    0.0024 C   0  0  0  0  0  0  0  0  0  0  0  0
    0.4261    1.2273    0.0039 C   0  0  0  0  0  0  0  0  0  0  0  0
    0.4117   -1.1510   -0.0013 C   0  0  0  0  0  0  0  0  0  0  0  0
    1.8161    1.1886    0.0018 C   0  0  0  0  0  0  0  0  0  0  0  0
   -1.7494    0.0472    0.0045 C   0  0  0  0  0  0  0  0  0  0  0  0
    2.4302   -0.0535   -0.0018 C   0  0  0  0  0  0  0  0  0  0  0  0
   -0.0720    2.1930    0.0070 H   0  0  0  0  0  0  0  0  0  0  0  0
   -0.0488   -2.1309   -0.0033 H   0  0  0  0  0  0  0  0  0  0  0  0
    2.4005    2.1016    0.0029 H   0  0  0  0  0  0  0  0  0  0  0  0
    3.5119   -0.1381   -0.0035 H   0  0  0  0  0  0  0  0  0  0  0  0
   -1.9562   -2.0884    0.0084 H   0  0  0  0  0  0  0  0  0  0  0  0
   -3.4202   -1.2053   -0.0028 H   0  0  0  0  0  0  0  0  0  0  0  0
  1  8  2  0  0  0  0
  2  6  1  0  0  0  0
  2  9  2  0  0  0  0
  3  8  1  0  0  0  0
  3 14  1  0  0  0  0
  3 15  1  0  0  0  0
  4  5  1  0  0  0  0
  4  6  2  0  0  0  0
  4  8  1  0  0  0  0
  5  7  2  0  0  0  0
  5 10  1  0  0  0  0
  6 11  1  0  0  0  0
  7  9  1  0  0  0  0
  7 12  1  0  0  0  0
  9 13  1  0  0  0  0
M  END
>  <PUBCHEM_COMPOUND_CID>
936

>  <PUBCHEM_CONFORMER_RMSD>
0.4

>  <PUBCHEM_CONFORMER_DIVERSEORDER>
1
2

>  <PUBCHEM_MMFF94_PARTIAL_CHARGES>
15
1 -0.57
10 0.15
11 0.15
12 0.15
13 0.15
14 0.37
15 0.37
2 -0.62
3 -0.8
4 0.09
5 -0.15
6 0.16
7 -0.15
8 0.54
9 0.16

>  <PUBCHEM_EFFECTIVE_ROTOR_COUNT>
1

>  <PUBCHEM_PHARMACOPHORE_FEATURES>
4
1 1 acceptor
1 2 acceptor
1 3 donor
6 2 4 5 6 7 9 rings

>  <PUBCHEM_HEAVY_ATOM_COUNT>
9

>  <PUBCHEM_ATOM_DEF_STEREO_COUNT>
0

>  <PUBCHEM_ATOM_UDEF_STEREO_COUNT>
0

>  <PUBCHEM_BOND_DEF_STEREO_COUNT>
0

>  <PUBCHEM_BOND_UDEF_STEREO_COUNT>
0

>  <PUBCHEM_ISOTOPIC_ATOM_COUNT>
0

>  <PUBCHEM_COMPONENT_COUNT>
1

>  <PUBCHEM_CACTVS_TAUTO_COUNT>
2

>  <PUBCHEM_CONFORMER_ID>
000003A800000001

>  <PUBCHEM_MMFF94_ENERGY>
25.5858

>  <PUBCHEM_FEATURE_SELFOVERLAP>
20.297

>  <PUBCHEM_SHAPE_FINGERPRINT>
10857977 72 18339068380415939466
12897270 3 18337950207302948751
14325111 11 18410574024022655488
16945 1 18266740186269114976
18185500 45 18340205185202580826
19973954 147 18410014346786892941
21040471 1 18266459982840094272
23402655 69 18268696243895068149
23552423 10 18333453135857147454
2748010 2 18411136943737018228
29004967 10 18409169896102515288
5084963 1 18271529809138022232

>  <PUBCHEM_SHAPE_MULTIPOLES>
169.38
3.44
1.47
0.59
0.91
0.02
0
0.03
0
-0.08
0
-0.04
-0.01
0

>  <PUBCHEM_SHAPE_SELFOVERLAP>
353.863

>  <PUBCHEM_SHAPE_VOLUME>
95.2

>  <PUBCHEM_COORDINATE_TYPE>
2
5
10

$$$$
53340666
 OpenBabel10062414423D

 59 61  0  0  0  0  0  0  0  0999 V2000
   -7.5878    1.8032    0.3497 O   0  0  0  0  0  0  0  0  0  0  0  0
   -1.6417   -2.4916    2.7484 O   0  0  0  0  0  0  0  0  0  0  0  0
   -6.3099    4.0977   -0.2772 O   0  0  0  0  0  0  0  0  0  0  0  0
   -2.1573   -2.8853    0.5212 N   0  0  0  0  0  0  0  0  0  0  0  0
    3.3218    0.2261    0.0379 N   0  0  0  0  0  0  0  0  0  0  0  0
   -6.4173    3.0501   -1.2017 N   0  0  0  0  0  0  0  0  0  0  0  0
    1.6639   -1.3665   -0.4316 N   0  0  0  0  0  0  0  0  0  0  0  0
    1.5979   -0.0744    1.6012 N   0  0  0  0  0  0  0  0  0  0  0  0
   -4.7059   -1.8353   -0.5463 C   0  0  0  0  0  0  0  0  0  0  0  0
   -5.9035   -0.8832   -0.5313 C   0  0  0  0  0  0  0  0  0  0  0  0
   -4.5746   -2.5854    0.7794 C   0  0  0  0  0  0  0  0  0  0  0  0
   -6.0131   -0.1094   -1.8485 C   0  0  0  0  0  0  0  0  0  0  0  0
   -3.4049   -3.5616    0.7508 C   0  0  0  0  0  0  0  0  0  0  0  0
   -7.1816    0.8750   -1.8497 C   0  0  0  0  0  0  0  0  0  0  0  0
   -7.0904    1.9347   -0.7653 C   0  0  0  0  0  0  0  0  0  0  0  0
   -1.3661   -2.3984    1.5552 C   0  0  0  0  0  0  0  0  0  0  0  0
   -0.1187   -1.7003    1.1508 C   0  0  0  0  0  0  0  0  0  0  0  0
    2.1359   -0.4376    0.4214 C   0  0  0  0  0  0  0  0  0  0  0  0
    4.3265   -0.4387   -0.7922 C   0  0  0  0  0  0  0  0  0  0  0  0
    3.5881    1.6025    0.4566 C   0  0  0  0  0  0  0  0  0  0  0  0
    0.5304   -1.9810   -0.0341 C   0  0  0  0  0  0  0  0  0  0  0  0
    0.4665   -0.7284    1.9364 C   0  0  0  0  0  0  0  0  0  0  0  0
    4.6704    0.0961   -2.0337 C   0  0  0  0  0  0  0  0  0  0  0  0
    4.9017    2.0340    0.6401 C   0  0  0  0  0  0  0  0  0  0  0  0
    4.9404   -1.6075   -0.3422 C   0  0  0  0  0  0  0  0  0  0  0  0
    2.5281    2.4830    0.6724 C   0  0  0  0  0  0  0  0  0  0  0  0
    5.6283   -0.5379   -2.8253 C   0  0  0  0  0  0  0  0  0  0  0  0
    5.1555    3.3463    1.0395 C   0  0  0  0  0  0  0  0  0  0  0  0
    5.8983   -2.2415   -1.1335 C   0  0  0  0  0  0  0  0  0  0  0  0
    2.7817    3.7952    1.0717 C   0  0  0  0  0  0  0  0  0  0  0  0
    6.2421   -1.7067   -2.3752 C   0  0  0  0  0  0  0  0  0  0  0  0
    4.0954    4.2268    1.2553 C   0  0  0  0  0  0  0  0  0  0  0  0
   -4.8200   -2.5533   -1.3676 H   0  0  0  0  0  0  0  0  0  0  0  0
   -3.7967   -1.2562   -0.7463 H   0  0  0  0  0  0  0  0  0  0  0  0
   -6.8265   -1.4497   -0.3589 H   0  0  0  0  0  0  0  0  0  0  0  0
   -5.7865   -0.1880    0.3075 H   0  0  0  0  0  0  0  0  0  0  0  0
   -4.4405   -1.8660    1.5965 H   0  0  0  0  0  0  0  0  0  0  0  0
   -5.4977   -3.1406    0.9839 H   0  0  0  0  0  0  0  0  0  0  0  0
   -5.0792    0.4378   -2.0263 H   0  0  0  0  0  0  0  0  0  0  0  0
   -6.1387   -0.8135   -2.6795 H   0  0  0  0  0  0  0  0  0  0  0  0
   -3.5335   -4.2956   -0.0517 H   0  0  0  0  0  0  0  0  0  0  0  0
   -3.3532   -4.1054    1.7002 H   0  0  0  0  0  0  0  0  0  0  0  0
   -8.1269    0.3371   -1.7088 H   0  0  0  0  0  0  0  0  0  0  0  0
   -7.2464    1.3616   -2.8305 H   0  0  0  0  0  0  0  0  0  0  0  0
   -1.8889   -2.7322   -0.4452 H   0  0  0  0  0  0  0  0  0  0  0  0
   -6.1055    3.2368   -2.1478 H   0  0  0  0  0  0  0  0  0  0  0  0
    0.1844   -2.7410   -0.7263 H   0  0  0  0  0  0  0  0  0  0  0  0
    0.0376   -0.4271    2.8869 H   0  0  0  0  0  0  0  0  0  0  0  0
    4.1952    1.0015   -2.4024 H   0  0  0  0  0  0  0  0  0  0  0  0
    5.7513    1.3713    0.5030 H   0  0  0  0  0  0  0  0  0  0  0  0
    4.6862   -2.0327    0.6253 H   0  0  0  0  0  0  0  0  0  0  0  0
    1.4941    2.2000    0.4980 H   0  0  0  0  0  0  0  0  0  0  0  0
    5.8947   -0.1225   -3.7927 H   0  0  0  0  0  0  0  0  0  0  0  0
    6.1780    3.6815    1.1868 H   0  0  0  0  0  0  0  0  0  0  0  0
    6.3772   -3.1509   -0.7827 H   0  0  0  0  0  0  0  0  0  0  0  0
    1.9571    4.4841    1.2302 H   0  0  0  0  0  0  0  0  0  0  0  0
    6.9878   -2.2004   -2.9914 H   0  0  0  0  0  0  0  0  0  0  0  0
    4.2929    5.2489    1.5650 H   0  0  0  0  0  0  0  0  0  0  0  0
   -5.4318    3.9089    0.0950 H   0  0  0  0  0  0  0  0  0  0  0  0
  1 15  2  0  0  0  0
  2 16  2  0  0  0  0
  3  6  1  0  0  0  0
  3 59  1  0  0  0  0
  4 13  1  0  0  0  0
  4 16  1  0  0  0  0
  4 45  1  0  0  0  0
  5 18  1  0  0  0  0
  5 19  1  0  0  0  0
  5 20  1  0  0  0  0
  6 15  1  0  0  0  0
  6 46  1  0  0  0  0
  7 18  2  0  0  0  0
  7 21  1  0  0  0  0
  8 18  1  0  0  0  0
  8 22  2  0  0  0  0
  9 10  1  0  0  0  0
  9 11  1  0  0  0  0
  9 33  1  0  0  0  0
  9 34  1  0  0  0  0
 10 12  1  0  0  0  0
 10 35  1  0  0  0  0
 10 36  1  0  0  0  0
 11 13  1  0  0  0  0
 11 37  1  0  0  0  0
 11 38  1  0  0  0  0
 12 14  1  0  0  0  0
 12 39  1  0  0  0  0
 12 40  1  0  0  0  0
 13 41  1  0  0  0  0
 13 42  1  0  0  0  0
 14 15  1  0  0  0  0
 14 43  1  0  0  0  0
 14 44  1  0  0  0  0
 16 17  1  0  0  0  0
 17 21  2  0  0  0  0
 17 22  1  0  0  0  0
 19 23  2  0  0  0  0
 19 25  1  0  0  0  0
 20 24  2  0  0  0  0
 20 26  1  0  0  0  0
 21 47  1  0  0  0  0
 22 48  1  0  0  0  0
 23 27  1  0  0  0  0
 23 49  1  0  0  0  0
 24 28  1  0  0  0  0
 24 50  1  0  0  0  0
 25 29  2  0  0  0  0
 25 51  1  0  0  0  0
 26 30  2  0  0  0  0
 26 52  1  0  0  0  0
 27 31  2  0  0  0  0
 27 53  1  0  0  0  0
 28 32  2  0  0  0  0
 28 54  1  0  0  0  0
 29 31  1  0  0  0  0
 29 55  1  0  0  0  0
 30 32  1  0  0  0  0
 30 56  1  0  0  0  0
 31 57  1  0  0  0  0
 32 58  1  0  0  0  0
M  END
>  <PUBCHEM_COMPOUND_CID>
53340666

>  <PUBCHEM_CONFORMER_RMSD>
1.2

>  <PUBCHEM_CONFORMER_DIVERSEORDER>
3
38
22
41
39
73
70
45
47
13
76
50
31
33
68
18
11
4
67
26
1
42
25
21
32
65
49
14
27
10
7
59
51
57
36
12
19
37
28
75
56
9
5
40
24
35
46
8
2
55
17
48
66
16
54
44
34
43
53
15
29
71
72
6
62
52
23
20
60
74
58
64
30
69
61
63

>  <PUBCHEM_MMFF94_PARTIAL_CHARGES>
43
1 -0.57
13 0.3
14 0.06
15 0.57
16 0.54
17 0.09
18 0.72
19 0.1
2 -0.57
20 0.1
21 0.16
22 0.16
23 -0.15
24 -0.15
25 -0.15
26 -0.15
27 -0.15
28 -0.15
29 -0.15
3 -0.44
30 -0.15
31 -0.15
32 -0.15
4 -0.73
45 0.37
46 0.37
47 0.15
48 0.15
49 0.15
5 -0.3
50 0.15
51 0.15
52 0.15
53 0.15
54 0.15
55 0.15
56 0.15
57 0.15
58 0.15
59 0.4
6 -0.39
7 -0.62
8 -0.62

>  <PUBCHEM_EFFECTIVE_ROTOR_COUNT>
13

>  <PUBCHEM_PHARMACOPHORE_FEATURES>
10
1 1 acceptor
1 2 acceptor
1 4 donor
1 6 donor
1 8 acceptor
4 5 7 8 18 cation
5 9 10 11 12 14 hydrophobe
6 19 23 25 27 29 31 rings
6 20 24 26 28 30 32 rings
6 7 8 17 18 21 22 rings

>  <PUBCHEM_HEAVY_ATOM_COUNT>
32

>  <PUBCHEM_ATOM_DEF_STEREO_COUNT>
0

>  <PUBCHEM_ATOM_UDEF_STEREO_COUNT>
0

>  <PUBCHEM_BOND_DEF_STEREO_COUNT>
0

>  <PUBCHEM_BOND_UDEF_STEREO_COUNT>
0

>  <PUBCHEM_ISOTOPIC_ATOM_COUNT>
0

>  <PUBCHEM_COMPONENT_COUNT>
1

>  <PUBCHEM_CACTVS_TAUTO_COUNT>
8

>  <PUBCHEM_CONFORMER_ID>
032DE9FA00000003

>  <PUBCHEM_MMFF94_ENERGY>
96.171

>  <PUBCHEM_FEATURE_SELFOVERLAP>
50.746

>  <PUBCHEM_SHAPE_FINGERPRINT>
10554248 39 17489320714584065551
10864689 126 18263076626880305205
11103572 95 8430325645650976573
11475781 23 18408879668119715842
14347329 18 17240484723284605503
15297060 5 17749117668417610287
15530120 55 17487879306912299549
19304671 126 18342167887090049865
21223535 225 18409440414686290879
21859007 373 18261946453390916286
23559900 14 18056496152001257130
23569914 152 17983581801417095790
2747138 104 17823989042573028915
42767 28 18341608188479911745
60123966 16 18201441441068954582
6376802 90 18120936363303738042
6712543 237 8286208271172990871

>  <PUBCHEM_SHAPE_MULTIPOLES>
616.03
21.22
5.34
2.27
32.84
4.98
0.6
10.84
13.73
1.06
-1.82
-1.18
-0.9
6.67

>  <PUBCHEM_SHAPE_SELFOVERLAP>
1295.951

>  <PUBCHEM_SHAPE_VOLUME>
341.7

>  <PUBCHEM_COORDINATE_TYPE>
2
5
10

$$$$
